<?xml version="1.0" encoding="UTF-8"?>

<!-- generated on 01/23/21 15:59:32 by Eclipse SUMO duarouter Version 1.8.0
<configuration xmlns:xsi="http://www.w3.org/2001/XMLSchema-instance" xsi:noNamespaceSchemaLocation="http://sumo.dlr.de/xsd/duarouterConfiguration.xsd">

    <input>
        <net-file value="test.net.xml"/>
        <route-files value="trips.trips.xml"/>
    </input>

    <output>
        <output-file value="map.rou.xml"/>
        <alternatives-output value="map.rou.alt.xml"/>
    </output>

    <time>
        <begin value="0"/>
        <end value="1000"/>
	<step-length value="0.1"/>
    </time>

    <report>
        <no-warnings value="true"/>
        <ignore-errors value="true"/>
        <no-step-log value="true"/>
    </report>

</configuration>
-->

<routes xmlns:xsi="http://www.w3.org/2001/XMLSchema-instance" xsi:noNamespaceSchemaLocation="http://sumo.dlr.de/xsd/routes_file.xsd">
    <vehicle id="0" depart="0.00">
        <route edges="341671964#3 341671964#4 341671964#5 341671964#6 341671964#7 341671964#8 341671964#9 341671964#10 341671964#11 341671964#12 794061367#0 794061367#1 794061367#2 794061367#3 794061367#4 794061367#5 794061352#0 794061352#1 795084570#0 795084570#1 795084570#2 795084570#3 795084570#4 795084570#5 795084569#0 795084569#1 795084569#2 795084569#3 15469789#0 15469789#1 15469789#2 15469789#3 15469789#4 15469789#5 15469789#6 15469789#7 795084568 392002072#0 392002072#1 392002072#2 14479140 -14479140"/>
    </vehicle>
    <vehicle id="1" depart="1.00">
        <route edges="15469696#4 15240255#3 15240255#4 795084572#0 795084572#1 795084572#2 795084572#3 795084572#4 795084572#5 794061354#0 794061354#1 794061354#2 794061354#3 794061354#4 794061354#5 794061354#6 794061354#7 134216629#0 134216629#1 134216629#2 134216629#3 134216629#4 134216629#5 134216629#6 134216629#7 134216629#8 134216629#9 134216629#10 72145316#0 72145316#1 72145316#2 72145316#3 72145316#4 72145316#5 72145316#6 72145316#7 72145316#8 72145316#9 72145316#10 72145316#11 72145316#12 72145316#13 72145316#14 799484670#0 799484670#1 331159750#0 331159750#1 331159750#2 331159750#3 331159750#4 783216748#0 783216748#1 15017128#0 15017128#1 15017128#2 15017128#3 15017128#4"/>
    </vehicle>
    <vehicle id="3" depart="3.00">
        <route edges="75035877 207143229#1 207143229#2 207143229#3 207143229#4 207143229#5 207143229#6 207143229#7 207143229#8 207143229#9 207143229#10 794061358#0 794061358#1 795094238 30969387#0 30969387#1 30969387#2 30969387#3 30969387#4 42161072#0 42161072#1 787840539#2 234509633#0 234509633#1 42161338 622500513#0 622500513#1 622500513#2 622500513#3 622500513#4 622500513#5 622500513#6 42161336#0 -42161336#0"/>
    </vehicle>
    <vehicle id="4" depart="4.00">
        <route edges="207143229#0 207143229#1 207143229#2 207143229#3 207143229#4 207143229#5 207143229#6 207143229#7 207143229#8 207143229#9 207143229#10 794061358#0 794061358#1 392002073#0 392002073#1 392002073#2 392002073#3 15240247 15240253#0 15240253#1 15240253#2 15240253#3 15240253#4 586980042#0 586980042#1 586980042#2 586980042#3 586980042#4 586980042#5 586980042#6 589276468 795084568 392002072#0 392002072#1 392002072#2 14479140 -14479140"/>
    </vehicle>
    <vehicle id="5" depart="5.00">
        <route edges="15240247 15240253#0 15240253#1 15240253#2 15240253#3 15240253#4 586980042#0 586980042#1 586980042#2 586980042#3 586980042#4 586980042#5 586980042#6 589276468 795084568 392002072#0 392002072#1 329058531 426499144#1 795084574#0 795084574#1 795084574#2 795100846#0 795100846#1 795100846#2 426499143#0 29626093#2 29626093#3"/>
    </vehicle>
    <vehicle id="6" depart="6.00">
        <route edges="-201336950 201336951 371430736#1 14484065"/>
    </vehicle>
    <vehicle id="8" depart="8.00">
        <route edges="15240247 15240253#0 15240253#1 15240253#2 15240255#0 15240255#1 15240255#2 15240255#3 15240255#4 795084572#0 795084572#1 795084572#2 795084572#3 795084572#4 795084572#5 794061353#0 794061353#1 794061353#2 794061353#3 341671977 30969384#13 30969386#0 30969386#1 30969386#2 30969386#3 30969386#4 30969386#5 30969386#6 30969386#7 30969386#8"/>
    </vehicle>
    <vehicle id="10" depart="10.00">
        <route edges="72145316#14 799484670#0 799484670#1 331159750#0 331159750#1 331159750#2 331159750#3 331159750#4 783216748#0 783216748#1 15017128#0 15017128#1 15017128#2 15017128#3 15017128#4 15017128#5 15017128#6 341671964#0 341671964#1 341671964#2 341671964#3 341671964#4 341671964#5 341671964#6 341671964#7 341671964#8 341671964#9 341671964#10 341671964#11 341671964#12 794061367#0 794061367#1 794061367#2 794061367#3 794061367#4 794061367#5 341671973#0 341671973#1 341671973#2 341671973#3 341671973#4 787840541#0 787840541#1 58740874#0 58740874#1 58740874#2 795094238 30969387#0 30969387#1 30969387#2 30969387#3 30969387#4 30969387#5 30969387#6 179731694#0 179731694#1 280868324#1 280868324#2 179731692 41425840#0"/>
    </vehicle>
    <vehicle id="12" depart="12.00">
        <route edges="795084571#1 795084571#2 795084569#0 795084569#1 795084569#2 795084569#3 15469789#0 15469789#1 15469789#2 15469789#3 15469789#4 15469789#5 15469789#6 15469789#7 795084568 392002072#0 392002072#1 392002072#2 14479140 329058529 164102102#0 164102102#1 341671988#0 341671988#1 160970025#0 160970025#1"/>
    </vehicle>
    <vehicle id="13" depart="13.00">
        <route edges="-42161339#1"/>
    </vehicle>
    <vehicle id="15" depart="15.00">
        <route edges="72145316#4 72145316#5 30149869#3 30149869#4 30149869#5 30149869#6 30149869#7 30149869#8 37319455#9 37319455#10 15240246#0 15240246#1 15240246#2 15240246#3 15240246#4 207143229#0 207143229#1 207143229#2 207143229#3 207143229#4 207143229#5 207143229#6 207143229#7 207143229#8 207143229#9 207143229#10 794061358#0 794061358#1 795094238 30969387#0 30969387#1 30969387#2 30969387#3 30969387#4 42161072#0 42161072#1 787840539#2 234509633#0 234509633#1 42161338 622500513#0 622500513#1 622500513#2 622500513#3 622500513#4 622500513#5 622500513#6 42161336#0 42161336#1 42161336#2 42161336#3"/>
    </vehicle>
    <vehicle id="16" depart="16.00">
        <route edges="30789633 59877209#3 59877209#4 72145324#0 72145324#1 72145324#2 72145324#3 72145324#4 72145324#5 72145324#6 787840542 179723261#0 179723261#1 179723261#2 179723261#3 179723261#4 179723261#5 15240255#2 15240255#3 15240255#4 795084572#0 795084572#1 795084572#2 795084572#3 795084572#4"/>
    </vehicle>
    <vehicle id="17" depart="17.00">
        <route edges="179723958#0 179723958#1 179723958#2 59877205#0 59877205#1 59877205#2 59877205#3 30123478#0 30123478#1 30989373#6 30989373#7 30989373#8 30989373#9 331159750#0 331159750#1 331159750#2 331159750#3 331159750#4 783216748#0 783216748#1 15017128#0 15017128#1 15017128#2 15017128#3 15017128#4 15017128#5 15017128#6 341671964#0 341671964#1 341671964#2 341671964#3 341671964#4 341671964#5 341671964#6 341671964#7 341671964#8 341671964#9 341671964#10 341671964#11 341671964#12 794061367#0 794061367#1 794061367#2 794061367#3 794061367#4 794061367#5 794061352#0 794061352#1 795084570#0 795084570#1 795084570#2 795084570#3 795084570#4 795084570#5 341671980 30969384#8 30969384#9 30969384#10"/>
    </vehicle>
    <vehicle id="19" depart="19.00">
        <route edges="72157029#4 72157029#5 72157029#6 794061353#0 794061353#1 794061353#2 794061353#3 341671977 30969384#13 30969386#0 30969386#1 30969386#2 30969386#3 30969386#4 30969386#5 30969386#6 30969386#7 30969386#8 30969386#9 30969386#10 30969386#11 30969386#12 30969386#13 30969386#14"/>
    </vehicle>
    <vehicle id="21" depart="21.00">
        <route edges="15240255#1 179723261#6 179723261#7 179723261#8 179723261#9 179723261#10 179723261#11 179723261#12 179723261#13 795100846#0 795100846#1 795100846#2 164103413#0 164103413#1 164103413#2 164103413#3 15469789#4 15469789#5"/>
    </vehicle>
    <vehicle id="22" depart="22.00">
        <route edges="-42161336#0 -622500513#6 -622500513#5 -622500513#4 -622500513#3 -622500513#2 -622500513#1 -622500513#0 72157032#0 72157032#1 787840539#1 787840539#2 234509633#0 234509633#1 234509633#2 787840537 794061359#0 794061359#1 794061358#0 794061358#1 392002073#0 392002073#1 392002073#2 392002073#3 15240247"/>
    </vehicle>
    <vehicle id="23" depart="23.00">
        <route edges="-555336549 14819635 555338775#0 555338775#1 72157029#0 72157029#1 72157029#2 72157029#3 72157029#4 179723261#3 179723261#4 179723261#5 179723261#6 179723261#7 179723261#8 179723261#9 179723261#10 15289979#4 15469696#2"/>
    </vehicle>
    <vehicle id="24" depart="24.00">
        <route edges="341671964#2 341671964#3 341671964#4 341671964#5 341671964#6 341671964#7 341671964#8 341671964#9 341671964#10 341671964#11 341671964#12 794061367#0 794061367#1 794061367#2 794061367#3 794061367#4 794061367#5 341671973#0 341671973#1 341671973#2 341671973#3 341671973#4 787840541#0 787840541#1 179723261#0"/>
    </vehicle>
    <vehicle id="26" depart="26.00">
        <route edges="15469696#1 15289979#5 164103413#1 164103413#2 164103413#3 164103413#4 164103413#5 164103413#6 164103413#7 164103413#8 164103413#9 164103413#10 164103413#11 164103413#12 795084572#0 795084572#1 795084572#2 795084572#3 795084572#4 795084572#5 794061353#0 794061353#1"/>
    </vehicle>
    <vehicle id="27" depart="27.00">
        <route edges="341671980 30969384#8 30969384#9 30969384#10 30969384#11 30969384#12 30969384#13 14819490 794061352#0 794061352#1 795084570#0 795084570#1 795084570#2 795084570#3 795084570#4 795084570#5 795084569#0 795084569#1 795084569#2 795084569#3 15469789#0 15469789#1 15469789#2 15469789#3 15469789#4 15469789#5 15469789#6 15469789#7 795084568 392002072#0 392002072#1 392002072#2 14479140 329058529 164102102#0 164102102#1 14479291 257820900 160970024 160970035 329119140"/>
    </vehicle>
    <vehicle id="29" depart="29.00">
        <route edges="134216629#1 134216629#2 134216629#3 134216629#4 134216629#5 75551408#0 75551408#1 75551408#2 72145324#4 72145324#5 72145324#6 787840542 179723261#0 179723261#1 179723261#2 179723261#3 179723261#4 179723261#5 179723261#6"/>
    </vehicle>
    <vehicle id="30" depart="30.00">
        <route edges="795100846#0 795100846#1 795100846#2 164103413#0 164103413#1 164103413#2 164103413#3 15469789#4 15469789#5 15469789#6 15469789#7 795084568 392002072#0 392002072#1 392002072#2 14479140 329058529 164102102#0 164102102#1 341671988#0"/>
    </vehicle>
    <vehicle id="32" depart="32.00">
        <route edges="72157025#0 72157026 72157029#4 72157029#5 72157029#6 794061354#0 794061354#1 794061354#2 794061354#3 794061354#4 787840541#0 787840541#1 58740874#0 58740874#1 72157034 30969241#1 30969241#2 59877200#0"/>
    </vehicle>
    <vehicle id="33" depart="33.00">
        <route edges="15240255#2 15240255#3 15240255#4 795084572#0 795084572#1 795084572#2 795084572#3 795084572#4 795084572#5 794061354#0 794061354#1 794061354#2 794061354#3 794061354#4 787840541#0 787840541#1 58740874#0 58740874#1 58740874#2 392002073#0 392002073#1 392002073#2 392002073#3 15240247 15240253#0 15240253#1 15240253#2 -15240256"/>
    </vehicle>
    <vehicle id="34" depart="34.00">
        <route edges="15762196#5 15762196#6 207143229#6 207143229#7 207143229#8 207143229#9 207143229#10 30969241#0 30969241#1 30969241#2 59877200#0 59877200#1 59877201#0 59877201#1 59877201#2 59877201#3 59877201#4 794061367#0 794061367#1 794061367#2 794061367#3 794061367#4 794061367#5 794061352#0 794061352#1 795084570#0 795084570#1 795084570#2 795084570#3 795084570#4 795084570#5 795084569#0 795084569#1 795084569#2 795084569#3 15469789#0 15469789#1 15469789#2 15469789#3 164103413#4 164103413#5 164103413#6 164103413#7 164103413#8 15469624#3 15469624#4"/>
    </vehicle>
    <vehicle id="35" depart="35.00">
        <route edges="15017128#3 15017128#4 15017128#5 15017128#6 341671964#0 341671964#1 341671964#2 341671964#3 341671964#4 341671964#5 341671964#6 341671964#7 341671964#8 341671964#9 341671964#10 341671964#11 341671964#12 794061367#0 794061367#1 794061367#2 794061367#3 794061367#4 794061367#5 341671973#0 341671973#1 341671973#2 341671973#3 341671973#4 787840541#0 787840541#1 179723261#0 179723261#1 179723261#2 72157029#5 72157029#6 794061354#0 794061354#1 794061354#2"/>
    </vehicle>
    <vehicle id="36" depart="36.00">
        <route edges="72157034 30969241#1 30969241#2 59877200#0 59877200#1 134216629#0 134216629#1 134216629#2 134216629#3 134216629#4 134216629#5 75551408#0 75551408#1 75551408#2 75551408#3 207143229#7 15761907"/>
    </vehicle>
    <vehicle id="37" depart="37.00">
        <route edges="371430736#1 160970023 -14479140 426499144#0 426499144#1 795084574#0 795084574#1 795084574#2 795100846#0 795100846#1 795100846#2 164103413#0 164103413#1 164103413#2 164103413#3 164103413#4 164103413#5 164103413#6 164103413#7 164103413#8 164103413#9 164103413#10 164103413#11 164103413#12 795084572#0 795084572#1 795084572#2 795084572#3 795084572#4 795084572#5 794061354#0 794061354#1 794061354#2 794061354#3 794061354#4 787840541#0 787840541#1 58740874#0 58740874#1 58740874#2 795094238 30969387#0 30969387#1 30969387#2 30969387#3 30969387#4 30969387#5 30969387#6 179731694#0 179731694#1 280868324#1 280868324#2 179731692 179731691#0 179731691#1"/>
    </vehicle>
    <vehicle id="38" depart="38.00">
        <route edges="787840539#0 787840539#1 787840539#2 234509633#0"/>
    </vehicle>
    <vehicle id="39" depart="39.00">
        <route edges="15469696#0 795100846#1 795100846#2 164103413#0 164103413#1 164103413#2 164103413#3 15469789#4 15469789#5 15469789#6 15469789#7 795084568 15289979#0 15289979#1"/>
    </vehicle>
    <vehicle id="40" depart="40.00">
        <route edges="30969384#10 30969384#11 30969384#12 30969384#13 14819490 341671973#0 341671973#1 341671973#2 341671973#3 341671973#4 787840541#0 787840541#1 179723261#0 179723261#1 179723261#2 179723261#3 179723261#4 172664327 15469494#1 15469494#2"/>
    </vehicle>
    <vehicle id="42" depart="42.00">
        <route edges="19112525#0 19112525#1 15240246#2 15240246#3 15240246#4 207143229#0 207143229#1 207143229#2 207143229#3 75035870 72145325 72145327 72145316#0 72145316#1 72145316#2 72145316#3 72145316#4 72145316#5 72145316#6 72145316#7 72145316#8 72145316#9 72145316#10 72145316#11 72145316#12 72145316#13 72145316#14 799484670#0 799484670#1 331159750#0 331159750#1 331159750#2 331159750#3 331159750#4 783216748#0 783216748#1 15017128#0 15017128#1 15017128#2"/>
    </vehicle>
    <vehicle id="45" depart="45.00">
        <route edges="-622500513#3 -622500513#2 -622500513#1 -622500513#0 72157032#0 72157032#1 787840539#1 787840539#2 234509633#0 234509633#1 234509633#2 787840537 794061359#0 794061359#1 30969241#0 30969241#1 30969241#2 59877200#0 59877200#1 134216629#0 134216629#1 134216629#2 134216629#3 134216629#4 134216629#5 134216629#6 134216629#7 134216629#8 134216629#9 134216629#10 72145316#0 72145316#1 72145316#2 30149874#3 30149874#4 341671964#0 341671964#1 341671964#2"/>
    </vehicle>
    <vehicle id="46" depart="46.00">
        <route edges="622500513#6 -622500513#6 -622500513#5 -622500513#4 -622500513#3 -622500513#2 -622500513#1 -622500513#0 72157032#0 72157032#1 787840539#1 787840539#2 234509633#0 234509633#1 234509633#2 787840537 794061359#0 794061359#1 30969241#0 30969241#1 30969241#2 59877200#0 59877200#1 134216629#0 134216629#1 134216629#2 134216629#3 134216629#4 134216629#5 134216629#6 134216629#7 134216629#8 15762196#2 15762196#3 15762196#4 15762196#5 15762196#6 75035873 75035871 -72145323#1 -72145323#0 207143229#4"/>
    </vehicle>
    <vehicle id="49" depart="49.00">
        <route edges="795100844#0 795100844#1 30149869#6 30149869#7 30149869#8 37319455#9 37319455#10 15240246#0 15240246#1 15240246#2 15240246#3 15240246#4 207143229#0 207143229#1 207143229#2 207143229#3 207143229#4 207143229#5 207143229#6 207143229#7 207143229#8 207143229#9 207143229#10 794061358#0 794061358#1 795094238 30969387#0 30969387#1 30969387#2 30969387#3 30969387#4 30969387#5 30969387#6 30969387#7 179731689#0 179731689#1 14819100#1 555338776 72157029#0"/>
    </vehicle>
    <vehicle id="52" depart="52.00">
        <route edges="15469696#1 15469696#2 15469789#6 15469789#7 795084568 392002072#0 392002072#1 392002072#2 14479140 329058529 164102102#0 164102102#1 341671988#0 341671988#1"/>
    </vehicle>
    <vehicle id="55" depart="55.00">
        <route edges="72157034 30969241#1 30969241#2 787840542 179723261#0 179723261#1 179723261#2 179723261#3 179723261#4 172664327 15469494#1 15469494#2"/>
    </vehicle>
    <vehicle id="57" depart="57.00">
        <route edges="787840539#0 787840539#1 787840539#2 234509633#0 234509633#1 234509633#2 787840537 794061359#0 794061359#1 794061358#0 794061358#1 392002073#0 392002073#1 72157029#3 72157029#4 72157029#5"/>
    </vehicle>
    <vehicle id="58" depart="58.00">
        <route edges="15469929#3 795084571#2 795084569#0 795084569#1 795084569#2 795084569#3 30969253#0 30969253#1 30969253#2 30969253#3 341671985"/>
    </vehicle>
    <vehicle id="59" depart="59.00">
        <route edges="30969387#7 30969387#8 169049934#0 169049934#1 787840539#0 787840539#1 787840539#2 234509633#0 234509633#1 234509633#2 787840537 794061359#0 794061359#1 30969241#0 30969241#1 30969241#2 59877200#0 59877200#1 134216629#0 134216629#1 134216629#2 134216629#3 134216629#4 134216629#5 134216629#6 134216629#7 134216629#8 134216629#9 134216629#10 72145316#0 72145316#1 72145316#2 72145316#3 72145316#4 72145316#5 30149869#3 30149869#4 30149869#5 30149869#6 30149869#7 30149869#8 37319455#9 37319455#10 15240246#0 15240246#1 15240246#2 -75035875 -42161339#2 -42161339#1 -75035879"/>
    </vehicle>
    <vehicle id="60" depart="60.00">
        <route edges="586980042#5 586980042#6 589276468 795084568 392002072#0 392002072#1 329058531 426499144#1 795084574#0 795084574#1 795084574#2 795100846#0 795100846#1 795100846#2 164103413#0 15289979#6 15289979#7 30969253#1"/>
    </vehicle>
    <vehicle id="61" depart="61.00">
        <route edges="59877209#3 59877209#4 72145325 72145327 72145316#0 72145316#1 72145316#2 30149874#3 30149874#4 341671964#0 341671964#1 341671964#2 30149896"/>
    </vehicle>
    <vehicle id="63" depart="63.00">
        <route edges="-14479140 426499144#0 426499144#1 795084574#0 795084574#1 795084574#2 795100846#0 795100846#1 795100846#2 164103413#0 164103413#1 164103413#2 164103413#3 164103413#4 164103413#5 164103413#6 164103413#7 164103413#8 164103413#9 164103413#10 164103413#11 164103413#12 795084572#0 795084572#1 795084572#2 795084572#3 795084572#4 795084572#5 794061354#0 794061354#1 794061354#2 794061354#3 794061354#4 787840541#0 787840541#1 58740874#0 58740874#1 72157034 30969241#1 30969241#2 787840542"/>
    </vehicle>
    <vehicle id="64" depart="64.00">
        <route edges="75035870 72145325 72145327 72145316#0 72145316#1 72145316#2 72145316#3 72145316#4 72145316#5 72145316#6 72145316#7 72145316#8 72145316#9 72145316#10 72145316#11 72145316#12 72145316#13 72145316#14 799484670#0 799484670#1 331159751#0 331159751#1 59877205#0 59877205#1 59877205#2 59877205#3 72145319#0 72145319#1 72145319#2 72145319#3 72145319#4"/>
    </vehicle>
    <vehicle id="66" depart="66.00">
        <route edges="75035870 72145324#0 72145324#1 72145324#2 72145324#3 72145324#4 72145324#5 72145324#6 59877200#0 59877200#1 59877201#0 59877201#1 59877201#2 59877201#3 59877201#4 794061367#0 794061367#1 794061367#2 794061367#3 794061367#4 794061367#5 341671973#0 341671973#1 341671973#2 341671973#3 341671973#4 794061354#5 794061354#6"/>
    </vehicle>
    <vehicle id="67" depart="67.00">
        <route edges="-42161336#1 -42161336#0 -622500513#6 -622500513#5 -622500513#4 -622500513#3 -622500513#2 -622500513#1 -622500513#0 72157032#0 72157032#1 787840539#1 787840539#2 234509633#0 234509633#1 234509633#2 787840537 794061359#0 794061359#1 30969241#0 30969241#1 30969241#2 787840542 179723261#0 179723261#1 179723261#2 179723261#3 179723261#4 179723261#5 15240255#2 15240255#3 15240255#4 795084572#0 795084572#1 795084572#2 282737870"/>
    </vehicle>
    <vehicle id="69" depart="69.00">
        <route edges="58740874#0 58740874#1 58740874#2 392002073#0 392002073#1 392002073#2 392002073#3 15240247 15240253#0 15240253#1 15240253#2 15240253#3 15240253#4 -72157019"/>
    </vehicle>
    <vehicle id="71" depart="71.00">
        <route edges="15469696#1 15289979#5 164103413#1 164103413#2 164103413#3 164103413#4 164103413#5 164103413#6 164103413#7 164103413#8 164103413#9 164103413#10 164103413#11 164103413#12 795084572#0 795084572#1 795084572#2 795084572#3 795084572#4 795084572#5 794061354#0 794061354#1 794061354#2 794061354#3 794061354#4 787840541#0 787840541#1 58740874#0 58740874#1 58740874#2 795094238 30969387#0 30969387#1 30969387#2 30969387#3 30969387#4 42161072#0 42161072#1 787840539#2 234509633#0 234509633#1 42161338 72157032#0"/>
    </vehicle>
    <vehicle id="73" depart="73.00">
        <route edges="30969241#2 787840542 58740874#0 58740874#1 58740874#2 795094238 30969387#0 30969387#1 30969387#2 30969387#3 30969387#4 42161072#0 42161072#1 787840539#2 234509633#0 234509633#1 42161338 622500513#0 622500513#1 622500513#2 622500513#3 622500513#4 622500513#5 622500513#6 42161336#0 42161336#1 42161336#2 42161336#3"/>
    </vehicle>
    <vehicle id="74" depart="74.00">
        <route edges="14818781#1 14818781#2 14818781#3 14818781#4 787840539#0 787840539#1 787840539#2 234509633#0 234509633#1 234509633#2 787840537 794061359#0 794061359#1 30969241#0 30969241#1 30969241#2 59877200#0 59877200#1 59877201#0 59877201#1 59877201#2 59877201#3 59877201#4 794061367#0 794061367#1 794061367#2 794061367#3 794061367#4 794061367#5 794061352#0 794061352#1 795084570#0 795084570#1 795084570#2 795084570#3 795084570#4 795084570#5 795084569#0 795084569#1 15469624#0 15469929#5"/>
    </vehicle>
    <vehicle id="76" depart="76.00">
        <route edges="228112612#0 228112612#1 329119142#0 329119142#1 329119142#2 164102096 -329058529 -14479140 426499144#0 426499144#1 795084574#0 795084574#1 795084574#2 795100846#0 795100846#1 795100846#2 164103413#0 164103413#1 164103413#2 164103413#3 164103413#4 164103413#5 164103413#6 164103413#7 164103413#8 164103413#9 164103413#10 164103413#11 164103413#12 795084572#0 795084572#1 795084572#2 795084572#3 795084572#4 795084572#5 794061354#0 794061354#1 794061354#2 794061354#3 794061354#4 794061354#5 794061354#6 794061354#7 134216629#0 134216629#1 134216629#2 134216629#3 134216629#4 134216629#5 134216629#6 134216629#7 134216629#8 134216629#9 134216629#10 72145316#0 72145316#1 72145316#2 72145316#3 72145316#4 72145316#5 72145316#6 72145316#7 72145316#8 72145316#9 72145316#10 72145316#11 72145316#12 72145316#13 72145316#14 799484670#0 799484670#1 331159750#0 331159750#1 331159750#2 331159750#3 331159750#4 783216748#0 783216748#1 15017128#0 15017128#1 15017128#2 15017128#3 15017128#4 30149869#0"/>
    </vehicle>
    <vehicle id="77" depart="77.00">
        <route edges="-622500513#8 -622500513#7 -622500513#6 -622500513#5 -622500513#4 -622500513#3 -622500513#2 -622500513#1 -622500513#0 72157032#0 72157032#1 787840539#1 787840539#2 234509633#0 234509633#1 234509633#2 787840537 794061359#0 794061359#1 30969241#0 30969241#1 30969241#2 59877200#0 59877200#1 134216629#0 134216629#1 134216629#2 134216629#3 134216629#4 134216629#5 134216629#6 134216629#7 134216629#8 134216629#9 134216629#10 72145316#0 72145316#1 72145316#2 72145316#3 72145316#4 72145316#5 72145316#6 72145316#7 72145316#8 72145316#9 72145316#10 72145316#11 72145316#12 72145316#13 72145316#14 799484670#0 799484670#1 331159750#0 331159750#1 331159750#2 331159750#3 331159750#4 783216748#0 783216748#1 15017128#0 15017128#1 15017128#2 15017128#3 15017128#4"/>
    </vehicle>
    <vehicle id="78" depart="78.00">
        <route edges="164102096 -329058529 -14479140 426499144#0 426499144#1 795084574#0 795084574#1 795084574#2 795100846#0 795100846#1 795100846#2 426499143#0 426499143#1 426499143#2 426499143#3 341671985 30969384#3 30969384#4 30969384#5 30969384#6 30969384#7 30969384#8 30969384#9 30969384#10 30969384#11 30969384#12 30969384#13 30969386#0 30969386#1 30969386#2 30969386#3 30969386#4 30969386#5 30969386#6 30969386#7"/>
    </vehicle>
    <vehicle id="79" depart="79.00">
        <route edges="15240255#3 15240255#4 795084572#0 795084572#1 795084572#2 795084572#3 795084572#4 795084572#5 794061354#0 794061354#1 794061354#2 794061354#3 794061354#4 794061354#5 794061354#6 794061354#7 134216629#0 134216629#1 134216629#2 134216629#3 134216629#4 134216629#5 134216629#6 134216629#7 134216629#8 134216629#9 134216629#10 72145316#0 72145316#1 72145316#2 72145316#3 72145316#4 72145316#5 72145316#6 72145316#7 72145316#8 72145316#9 72145316#10 72145316#11 72145316#12 72145316#13 72145316#14 799484670#0 799484670#1 331159750#0 331159750#1 331159750#2 331159750#3 331159750#4 783216748#0 783216748#1 15017128#0 15017128#1 15017128#2"/>
    </vehicle>
    <vehicle id="80" depart="80.00">
        <route edges="-42161330#0 -622500513#7 -622500513#6 -622500513#5 -622500513#4 -622500513#3 -622500513#2 -622500513#1 -622500513#0 72157032#0 72157032#1 787840539#1 787840539#2 234509633#0 234509633#1 234509633#2 787840537 794061359#0 794061359#1 30969241#0 30969241#1 30969241#2 59877200#0 59877200#1 59877201#0 59877201#1 59877201#2 59877201#3 59877201#4 30969242 30969386#6 30969386#7 30969386#8 105184921 341671964#6 341671964#7"/>
    </vehicle>
    <vehicle id="81" depart="81.00">
        <route edges="15240255#2 15240255#3 15240255#4 795084572#0 795084572#1 795084572#2 795084572#3 795084572#4 795084572#5 794061354#0 794061354#1 794061354#2 794061354#3 794061354#4 794061354#5 794061354#6 794061354#7 134216629#0 134216629#1 134216629#2 134216629#3 134216629#4 134216629#5 134216629#6 134216629#7 134216629#8 134216629#9 134216629#10 72145316#0 72145316#1 72145316#2 72145316#3 72145316#4 72145316#5 30149869#3 30149869#4 30149869#5 30149869#6 30149869#7 30149869#8 37319455#9 37319455#10 15240246#0 15240246#1 15240246#2 -75035875 -75035882#0 -75035883 -75035880#1 75035880#1 75035883"/>
    </vehicle>
    <vehicle id="84" depart="84.00">
        <route edges="15017128#5 15017128#6 341671964#0 341671964#1 341671964#2 341671964#3 341671964#4 341671964#5 341671964#6 341671964#7 341671964#8 341671964#9 341671964#10 341671964#11 341671964#12 794061367#0 794061367#1 794061367#2 794061367#3 794061367#4 794061367#5 341671973#0 341671973#1 341671973#2 341671973#3 341671973#4 787840541#0 787840541#1 58740874#0 58740874#1 58740874#2 392002073#0 392002073#1 392002073#2 392002073#3 15240247 15240253#0 15240253#1 15240253#2 15240253#3 15240253#4 586980042#0 586980042#1 586980042#2 586980042#3 586980042#4 -72157022"/>
    </vehicle>
    <vehicle id="85" depart="85.00">
        <route edges="794061354#2 794061354#3 794061354#4 794061354#5 794061354#6 794061354#7 59877201#0 59877201#1 59877201#2 59877201#3 59877201#4 30969242 30969386#6 30969386#7 30969386#8 30969386#9 30969386#10 30969386#11"/>
    </vehicle>
    <vehicle id="87" depart="87.00">
        <route edges="72145316#4 72145316#5 30149869#3 30149869#4 30149869#5 30149869#6 30149869#7 30149869#8 37319455#9 37319455#10 15240246#0 15240246#1 15240246#2 15240246#3 15240246#4 207143229#0 207143229#1 207143229#2 207143229#3 207143229#4 207143229#5 207143229#6 207143229#7 207143229#8 207143229#9 207143229#10 794061358#0 794061358#1 392002073#0 392002073#1 392002073#2 392002073#3 15240247 15240253#0 15240253#1 15240253#2 15240253#3 15240253#4 586980042#0 586980042#1 586980042#2 586980042#3 586980042#4 586980042#5 586980042#6 589276468 795084568 392002072#0 392002072#1 392002072#2 14479140 329058529 164102102#0 164102102#1 14479291"/>
    </vehicle>
    <vehicle id="88" depart="88.00">
        <route edges="-4217298#1 4217298#1 220554533"/>
    </vehicle>
    <vehicle id="91" depart="91.00">
        <route edges="795100845#1 795100845#2 795100845#3 164103413#0 164103413#1 164103413#2 164103413#3 164103413#4 164103413#5 164103413#6 164103413#7 164103413#8 164103413#9 164103413#10 164103413#11 164103413#12 795084572#0 795084572#1 795084572#2 795084572#3 795084572#4 795084572#5 794061354#0 794061354#1 794061354#2 794061354#3 794061354#4 794061354#5 794061354#6 794061354#7 134216629#0 134216629#1 134216629#2 134216629#3 134216629#4 134216629#5 134216629#6 134216629#7 134216629#8 134216629#9 134216629#10 72145316#0 72145316#1 72145316#2 72145316#3 72145316#4 72145316#5 30149869#3 30149869#4 30149869#5 30149869#6 30149869#7 30149869#8 37319455#9 37319455#10 15240246#0 15240246#1 15240246#2 -75035875 -42161339#2"/>
    </vehicle>
    <vehicle id="93" depart="93.00">
        <route edges="72157029#4 179723261#3 179723261#4 179723261#5 179723261#6 179723261#7 179723261#8 179723261#9 179723261#10 15289979#4"/>
    </vehicle>
    <vehicle id="94" depart="94.00">
        <route edges="14479291 257820900 160970024 160970035 329119140 228112616#0 228112616#1 228112616#2"/>
    </vehicle>
    <vehicle id="95" depart="95.00">
        <route edges="207143229#0 207143229#1 207143229#2 207143229#3 207143229#4 207143229#5 207143229#6 207143229#7 207143229#8 207143229#9 207143229#10 794061358#0 794061358#1 392002073#0 392002073#1 72157029#3 72157029#4 179723261#3 179723261#4 179723261#5 179723261#6 179723261#7 179723261#8 179723261#9 179723261#10 15289979#4 15469696#2"/>
    </vehicle>
    <vehicle id="96" depart="96.00">
        <route edges="15469494#1 15469494#2 72157029#4 72157029#5 72157029#6 794061354#0 794061354#1 794061354#2 794061354#3 794061354#4 787840541#0 787840541#1 58740874#0 58740874#1 58740874#2 795094238 30969387#0 30969387#1 30969387#2 30969387#3 30969387#4 30969387#5 30969387#6 30969387#7 30969387#8 169049934#0 169049934#1 787840539#0"/>
    </vehicle>
    <vehicle id="100" depart="100.00">
        <route edges="795084574#0 795084574#1 795084574#2 795100846#0 795100846#1 795100846#2 164103413#0 164103413#1 164103413#2 164103413#3 164103413#4 164103413#5 164103413#6 164103413#7 164103413#8 164103413#9 164103413#10 164103413#11 164103413#12 795084572#0 795084572#1 795084572#2 795084572#3 795084572#4 795084572#5 794061354#0 794061354#1 794061354#2 794061354#3 794061354#4 787840541#0 787840541#1"/>
    </vehicle>