<?xml version="1.0" encoding="UTF-8"?>

<!-- generated on 01/25/21 11:48:20 by Eclipse SUMO netconvert Version 1.8.0
<configuration xmlns:xsi="http://www.w3.org/2001/XMLSchema-instance" xsi:noNamespaceSchemaLocation="http://sumo.dlr.de/xsd/netconvertConfiguration.xsd">

    <input>
        <osm-files value="map.osm"/>
    </input>

    <output>
        <output-file value="map.net.xml"/>
        <output.street-names value="true"/>
    </output>

    <projection>
        <proj.utm value="true"/>
    </projection>

    <processing>
        <lefthand value="true"/>
    </processing>

    <report>
        <aggregate-warnings value="5"/>
    </report>

</configuration>
-->

<net version="1.6" junctionCornerDetail="5" lefthand="true" limitTurnSpeed="5.50" xmlns:xsi="http://www.w3.org/2001/XMLSchema-instance" xsi:noNamespaceSchemaLocation="http://sumo.dlr.de/xsd/net_file.xsd">

    <location netOffset="-682757.55,2543161.55" convBoundary="0.00,-0.00,4559.58,4099.86" origBoundary="-43.217303,-22.990314,-43.146107,-22.949191" projParameter="+proj=utm +zone=23 +ellps=WGS84 +datum=WGS84 +units=m +no_defs"/>

    <type id="highway.bridleway" priority="1" numLanes="1" speed="2.78" allow="pedestrian" oneway="1" width="2.00"/>
    <type id="highway.bus_guideway" priority="1" numLanes="1" speed="27.78" allow="bus" oneway="1"/>
    <type id="highway.cycleway" priority="1" numLanes="1" speed="8.33" allow="bicycle" oneway="0" width="1.00"/>
    <type id="highway.footway" priority="1" numLanes="1" speed="2.78" allow="pedestrian" oneway="1" width="2.00"/>
    <type id="highway.ford" priority="1" numLanes="1" speed="2.78" allow="army" oneway="0"/>
    <type id="highway.living_street" priority="2" numLanes="1" speed="2.78" disallow="tram rail_urban rail rail_electric rail_fast ship" oneway="0"/>
    <type id="highway.motorway" priority="14" numLanes="2" speed="39.44" allow="private emergency authority army vip passenger hov taxi bus coach delivery truck trailer motorcycle evehicle custom1 custom2" oneway="1"/>
    <type id="highway.motorway_link" priority="9" numLanes="1" speed="22.22" allow="private emergency authority army vip passenger hov taxi bus coach delivery truck trailer motorcycle evehicle custom1 custom2" oneway="1"/>
    <type id="highway.path" priority="1" numLanes="1" speed="2.78" allow="pedestrian bicycle" oneway="0" width="2.00"/>
    <type id="highway.pedestrian" priority="1" numLanes="1" speed="2.78" allow="pedestrian" oneway="1" width="2.00"/>
    <type id="highway.primary" priority="12" numLanes="2" speed="27.78" disallow="tram rail_urban rail rail_electric rail_fast ship" oneway="0"/>
    <type id="highway.primary_link" priority="7" numLanes="1" speed="22.22" disallow="tram rail_urban rail rail_electric rail_fast ship" oneway="0"/>
    <type id="highway.raceway" priority="15" numLanes="2" speed="83.33" allow="vip" oneway="0"/>
    <type id="highway.residential" priority="3" numLanes="1" speed="13.89" disallow="tram rail_urban rail rail_electric rail_fast ship" oneway="0"/>
    <type id="highway.secondary" priority="11" numLanes="1" speed="27.78" disallow="tram rail_urban rail rail_electric rail_fast ship" oneway="0"/>
    <type id="highway.secondary_link" priority="6" numLanes="1" speed="22.22" disallow="tram rail_urban rail rail_electric rail_fast ship" oneway="0"/>
    <type id="highway.service" priority="1" numLanes="1" speed="5.56" allow="pedestrian delivery bicycle" oneway="0"/>
    <type id="highway.stairs" priority="1" numLanes="1" speed="1.39" allow="pedestrian" oneway="1" width="2.00"/>
    <type id="highway.step" priority="1" numLanes="1" speed="1.39" allow="pedestrian" oneway="1" width="2.00"/>
    <type id="highway.steps" priority="1" numLanes="1" speed="1.39" allow="pedestrian" oneway="1" width="2.00"/>
    <type id="highway.tertiary" priority="10" numLanes="1" speed="22.22" disallow="tram rail_urban rail rail_electric rail_fast ship" oneway="0"/>
    <type id="highway.tertiary_link" priority="5" numLanes="1" speed="22.22" disallow="tram rail_urban rail rail_electric rail_fast ship" oneway="0"/>
    <type id="highway.track" priority="1" numLanes="1" speed="5.56" allow="pedestrian motorcycle moped bicycle" oneway="0"/>
    <type id="highway.trunk" priority="13" numLanes="2" speed="27.78" disallow="pedestrian bicycle tram rail_urban rail rail_electric rail_fast ship" oneway="0"/>
    <type id="highway.trunk_link" priority="8" numLanes="1" speed="22.22" disallow="pedestrian bicycle tram rail_urban rail rail_electric rail_fast ship" oneway="0"/>
    <type id="highway.unclassified" priority="4" numLanes="1" speed="13.89" disallow="tram rail_urban rail rail_electric rail_fast ship" oneway="0"/>
    <type id="highway.unsurfaced" priority="1" numLanes="1" speed="8.33" disallow="tram rail_urban rail rail_electric rail_fast ship" oneway="0"/>
    <type id="railway.highspeed" priority="21" numLanes="1" speed="69.44" allow="rail_fast" oneway="1"/>
    <type id="railway.light_rail" priority="19" numLanes="1" speed="27.78" allow="rail_urban" oneway="1"/>
    <type id="railway.preserved" priority="16" numLanes="1" speed="27.78" allow="rail" oneway="1"/>
    <type id="railway.rail" priority="20" numLanes="1" speed="44.44" allow="rail" oneway="1"/>
    <type id="railway.subway" priority="18" numLanes="1" speed="27.78" allow="rail_urban" oneway="1"/>
    <type id="railway.tram" priority="17" numLanes="1" speed="13.89" allow="tram" oneway="1"/>

    <edge id=":1014667980_0" function="internal">
        <lane id=":1014667980_0_0" index="0" disallow="tram rail_urban rail rail_electric rail_fast ship" speed="16.67" length="0.42" shape="3972.54,2465.30 3972.45,2465.24"/>
        <lane id=":1014667980_0_1" index="1" disallow="tram rail_urban rail rail_electric rail_fast ship" speed="16.67" length="0.42" shape="3970.83,2468.01 3970.56,2467.83"/>
        <lane id=":1014667980_0_2" index="2" disallow="tram rail_urban rail rail_electric rail_fast ship" speed="16.67" length="0.42" shape="3969.12,2470.71 3968.68,2470.41"/>
        <lane id=":1014667980_0_3" index="3" disallow="tram rail_urban rail rail_electric rail_fast ship" speed="16.67" length="0.42" shape="3967.40,2473.41 3966.79,2473.00"/>
    </edge>
    <edge id=":1105622644_0" function="internal">
        <lane id=":1105622644_0_0" index="0" disallow="tram rail_urban rail rail_electric rail_fast ship" speed="8.33" length="0.10" shape="4360.98,2444.48 4360.98,2444.48"/>
    </edge>
    <edge id=":1105622654_0" function="internal">
        <lane id=":1105622654_0_0" index="0" disallow="tram rail_urban rail rail_electric rail_fast ship" speed="8.33" length="0.10" shape="4413.98,2325.40 4413.98,2325.40"/>
    </edge>
    <edge id=":1105622660_0" function="internal">
        <lane id=":1105622660_0_0" index="0" allow="bicycle" speed="8.33" length="5.07" width="1.00" shape="4419.29,2275.01 4414.71,2272.84"/>
    </edge>
    <edge id=":1105622660_1" function="internal">
        <lane id=":1105622660_1_0" index="0" allow="bicycle" speed="2.04" length="0.73" width="1.00" shape="4419.29,2275.01 4418.84,2275.08 4418.63,2275.26"/>
    </edge>
    <edge id=":1105622660_4" function="internal">
        <lane id=":1105622660_4_0" index="0" allow="bicycle" speed="2.04" length="0.73" width="1.00" shape="4418.63,2275.26 4418.63,2275.54 4418.87,2275.92"/>
    </edge>
    <edge id=":1105622660_2" function="internal">
        <lane id=":1105622660_2_0" index="0" allow="bicycle" speed="8.33" length="5.09" width="1.00" shape="4414.27,2273.73 4418.87,2275.92"/>
    </edge>
    <edge id=":1105622660_3" function="internal">
        <lane id=":1105622660_3_0" index="0" allow="bicycle" speed="2.04" length="0.73" width="1.00" shape="4414.27,2273.73 4414.72,2273.67 4414.94,2273.50"/>
    </edge>
    <edge id=":1105622660_5" function="internal">
        <lane id=":1105622660_5_0" index="0" allow="bicycle" speed="2.04" length="0.73" width="1.00" shape="4414.94,2273.50 4414.94,2273.23 4414.71,2272.84"/>
    </edge>
    <edge id=":1108187393_0" function="internal">
        <lane id=":1108187393_0_0" index="0" disallow="pedestrian bicycle tram rail_urban rail rail_electric rail_fast ship" speed="19.44" length="0.36" shape="3998.16,2088.10 3997.94,2087.97"/>
        <lane id=":1108187393_0_1" index="1" disallow="pedestrian bicycle tram rail_urban rail rail_electric rail_fast ship" speed="19.44" length="0.36" shape="3996.58,2090.88 3996.28,2090.70"/>
        <lane id=":1108187393_0_2" index="2" disallow="pedestrian bicycle tram rail_urban rail rail_electric rail_fast ship" speed="19.44" length="0.36" shape="3995.01,2093.67 3994.61,2093.43"/>
    </edge>
    <edge id=":1108187450_0" function="internal">
        <lane id=":1108187450_0_0" index="0" disallow="tram rail_urban rail rail_electric rail_fast ship" speed="16.67" length="0.34" shape="4272.47,2396.10 4272.68,2396.19"/>
        <lane id=":1108187450_0_1" index="1" disallow="tram rail_urban rail rail_electric rail_fast ship" speed="16.67" length="0.34" shape="4273.75,2393.16 4274.02,2393.29"/>
        <lane id=":1108187450_0_2" index="2" disallow="tram rail_urban rail rail_electric rail_fast ship" speed="16.67" length="0.34" shape="4275.03,2390.23 4275.37,2390.38"/>
        <lane id=":1108187450_0_3" index="3" disallow="tram rail_urban rail rail_electric rail_fast ship" speed="16.67" length="0.34" shape="4276.31,2387.30 4276.71,2387.48"/>
    </edge>
    <edge id=":1108187466_0" function="internal">
        <lane id=":1108187466_0_0" index="0" disallow="pedestrian bicycle tram rail_urban rail rail_electric rail_fast ship" speed="19.44" length="0.30" shape="3462.36,1722.09 3462.14,1721.89"/>
        <lane id=":1108187466_0_1" index="1" disallow="pedestrian bicycle tram rail_urban rail rail_electric rail_fast ship" speed="19.44" length="0.30" shape="3460.19,1724.44 3459.97,1724.24"/>
        <lane id=":1108187466_0_2" index="2" disallow="pedestrian bicycle tram rail_urban rail rail_electric rail_fast ship" speed="19.44" length="0.30" shape="3458.02,1726.79 3457.80,1726.59"/>
    </edge>
    <edge id=":1108187498_0" function="internal">
        <lane id=":1108187498_0_0" index="0" disallow="tram rail_urban rail rail_electric rail_fast ship" speed="13.89" length="0.30" shape="3940.54,2234.47 3940.69,2234.21"/>
    </edge>
    <edge id=":1108187512_0" function="internal">
        <lane id=":1108187512_0_0" index="0" disallow="tram rail_urban rail rail_electric rail_fast ship" speed="8.33" length="0.30" shape="4148.98,2354.37 4149.11,2354.10"/>
    </edge>
    <edge id=":1108187520_0" function="internal">
        <lane id=":1108187520_0_0" index="0" disallow="tram rail_urban rail rail_electric rail_fast ship" speed="8.33" length="0.13" shape="4163.90,2321.69 4163.84,2321.81"/>
    </edge>
    <edge id=":1108187520_1" function="internal">
        <lane id=":1108187520_1_0" index="0" disallow="tram rail_urban rail rail_electric rail_fast ship" speed="8.33" length="0.27" shape="4166.61,2323.40 4166.74,2323.16"/>
    </edge>
    <edge id=":1108187551_0" function="internal">
        <lane id=":1108187551_0_0" index="0" disallow="tram rail_urban rail rail_electric rail_fast ship" speed="16.67" length="0.10" shape="3960.23,2230.94 3960.23,2230.94"/>
        <lane id=":1108187551_0_1" index="1" disallow="tram rail_urban rail rail_electric rail_fast ship" speed="16.67" length="0.10" shape="3961.83,2228.16 3961.83,2228.16"/>
        <lane id=":1108187551_0_2" index="2" disallow="tram rail_urban rail rail_electric rail_fast ship" speed="16.67" length="0.10" shape="3963.43,2225.39 3963.43,2225.39"/>
        <lane id=":1108187551_0_3" index="3" disallow="tram rail_urban rail rail_electric rail_fast ship" speed="16.67" length="0.10" shape="3965.03,2222.62 3965.03,2222.62"/>
    </edge>
    <edge id=":1108187561_0" function="internal">
        <lane id=":1108187561_0_0" index="0" disallow="pedestrian bicycle tram rail_urban rail rail_electric rail_fast ship" speed="19.44" length="0.29" shape="4003.74,2070.86 4004.00,2071.03"/>
        <lane id=":1108187561_0_1" index="1" disallow="pedestrian bicycle tram rail_urban rail rail_electric rail_fast ship" speed="19.44" length="0.29" shape="4005.43,2068.15 4005.66,2068.29"/>
    </edge>
    <edge id=":1108187568_0" function="internal">
        <lane id=":1108187568_0_0" index="0" disallow="tram rail_urban rail rail_electric rail_fast ship" speed="16.67" length="0.30" shape="4034.31,2273.73 4034.56,2273.88"/>
        <lane id=":1108187568_0_1" index="1" disallow="tram rail_urban rail rail_electric rail_fast ship" speed="16.67" length="0.30" shape="4035.91,2270.96 4036.17,2271.11"/>
        <lane id=":1108187568_0_2" index="2" disallow="tram rail_urban rail rail_electric rail_fast ship" speed="16.67" length="0.30" shape="4037.51,2268.19 4037.77,2268.34"/>
        <lane id=":1108187568_0_3" index="3" disallow="tram rail_urban rail rail_electric rail_fast ship" speed="16.67" length="0.30" shape="4039.11,2265.42 4039.38,2265.58"/>
    </edge>
    <edge id=":1108187605_0" function="internal">
        <lane id=":1108187605_0_0" index="0" disallow="tram rail_urban rail rail_electric rail_fast ship" speed="8.33" length="0.28" shape="4371.23,2419.56 4371.34,2419.31"/>
    </edge>
    <edge id=":1108187613_0" function="internal">
        <lane id=":1108187613_0_0" index="0" disallow="pedestrian bicycle tram rail_urban rail rail_electric rail_fast ship" speed="19.44" length="0.30" shape="3473.03,1704.92 3473.25,1705.13"/>
        <lane id=":1108187613_0_1" index="1" disallow="pedestrian bicycle tram rail_urban rail rail_electric rail_fast ship" speed="19.44" length="0.30" shape="3475.20,1702.58 3475.42,1702.78"/>
    </edge>
    <edge id=":1108187634_0" function="internal">
        <lane id=":1108187634_0_0" index="0" disallow="tram rail_urban rail rail_electric rail_fast ship" speed="8.33" length="0.10" shape="4062.39,2263.03 4062.39,2263.03"/>
    </edge>
    <edge id=":1108187641_0" function="internal">
        <lane id=":1108187641_0_0" index="0" disallow="pedestrian bicycle tram rail_urban rail rail_electric rail_fast ship" speed="19.44" length="0.10" shape="3370.51,1609.77 3370.45,1609.72"/>
        <lane id=":1108187641_0_1" index="1" disallow="pedestrian bicycle tram rail_urban rail rail_electric rail_fast ship" speed="19.44" length="0.10" shape="3372.56,1607.32 3372.62,1607.37"/>
    </edge>
    <edge id=":1108187687_0" function="internal">
        <lane id=":1108187687_0_0" index="0" disallow="tram rail_urban rail rail_electric rail_fast ship" speed="16.67" length="0.10" shape="3931.44,2214.30 3931.44,2214.30"/>
        <lane id=":1108187687_0_1" index="1" disallow="tram rail_urban rail rail_electric rail_fast ship" speed="16.67" length="0.10" shape="3933.04,2211.53 3933.04,2211.53"/>
        <lane id=":1108187687_0_2" index="2" disallow="tram rail_urban rail rail_electric rail_fast ship" speed="16.67" length="0.10" shape="3934.64,2208.76 3934.64,2208.76"/>
        <lane id=":1108187687_0_3" index="3" disallow="tram rail_urban rail rail_electric rail_fast ship" speed="16.67" length="0.10" shape="3936.24,2205.99 3936.24,2205.99"/>
    </edge>
    <edge id=":1108187692_0" function="internal">
        <lane id=":1108187692_0_0" index="0" disallow="tram rail_urban rail rail_electric rail_fast ship" speed="8.33" length="0.10" shape="4047.22,2292.01 4047.22,2292.01"/>
    </edge>
    <edge id=":1108187712_0" function="internal">
        <lane id=":1108187712_0_0" index="0" disallow="tram rail_urban rail rail_electric rail_fast ship" speed="16.67" length="0.30" shape="4062.27,2289.74 4062.51,2289.87"/>
        <lane id=":1108187712_0_1" index="1" disallow="tram rail_urban rail rail_electric rail_fast ship" speed="16.67" length="0.30" shape="4063.83,2286.94 4064.08,2287.09"/>
        <lane id=":1108187712_0_2" index="2" disallow="tram rail_urban rail rail_electric rail_fast ship" speed="16.67" length="0.30" shape="4065.39,2284.15 4065.66,2284.30"/>
        <lane id=":1108187712_0_3" index="3" disallow="tram rail_urban rail rail_electric rail_fast ship" speed="16.67" length="0.30" shape="4066.95,2281.36 4067.23,2281.51"/>
    </edge>
    <edge id=":1108187736_0" function="internal">
        <lane id=":1108187736_0_0" index="0" disallow="pedestrian bicycle tram rail_urban rail rail_electric rail_fast ship" speed="19.44" length="0.35" shape="3356.53,1624.55 3356.36,1624.38"/>
        <lane id=":1108187736_0_1" index="1" disallow="pedestrian bicycle tram rail_urban rail rail_electric rail_fast ship" speed="19.44" length="0.35" shape="3354.36,1626.90 3354.11,1626.66"/>
        <lane id=":1108187736_0_2" index="2" disallow="pedestrian bicycle tram rail_urban rail rail_electric rail_fast ship" speed="19.44" length="0.35" shape="3352.19,1629.25 3351.86,1628.93"/>
    </edge>
    <edge id=":1108187782_0" function="internal">
        <lane id=":1108187782_0_0" index="0" disallow="tram rail_urban rail rail_electric rail_fast ship" speed="27.78" length="0.10" shape="3465.50,1748.85 3465.50,1748.85"/>
    </edge>
    <edge id=":1108187787_0" function="internal">
        <lane id=":1108187787_0_0" index="0" disallow="tram rail_urban rail rail_electric rail_fast ship" speed="16.67" length="0.29" shape="4134.46,2330.50 4134.79,2330.68"/>
        <lane id=":1108187787_0_1" index="1" disallow="tram rail_urban rail rail_electric rail_fast ship" speed="16.67" length="0.29" shape="4136.03,2327.71 4136.31,2327.86"/>
        <lane id=":1108187787_0_2" index="2" disallow="tram rail_urban rail rail_electric rail_fast ship" speed="16.67" length="0.29" shape="4137.61,2324.92 4137.83,2325.05"/>
        <lane id=":1108187787_0_3" index="3" disallow="tram rail_urban rail rail_electric rail_fast ship" speed="16.67" length="0.29" shape="4139.18,2322.14 4139.35,2322.23"/>
    </edge>
    <edge id=":1108187877_0" function="internal">
        <lane id=":1108187877_0_0" index="0" disallow="tram rail_urban rail rail_electric rail_fast ship" speed="13.89" length="0.28" shape="4003.83,2116.38 4003.96,2116.13"/>
    </edge>
    <edge id=":1108187884_0" function="internal">
        <lane id=":1108187884_0_0" index="0" disallow="pedestrian bicycle tram rail_urban rail rail_electric rail_fast ship" speed="19.44" length="0.30" shape="4036.01,2109.75 4035.75,2109.60"/>
        <lane id=":1108187884_0_1" index="1" disallow="pedestrian bicycle tram rail_urban rail rail_electric rail_fast ship" speed="19.44" length="0.30" shape="4034.41,2112.52 4034.15,2112.37"/>
        <lane id=":1108187884_0_2" index="2" disallow="pedestrian bicycle tram rail_urban rail rail_electric rail_fast ship" speed="19.44" length="0.30" shape="4032.82,2115.29 4032.56,2115.14"/>
    </edge>
    <edge id=":1108187917_0" function="internal">
        <lane id=":1108187917_0_0" index="0" disallow="pedestrian bicycle tram rail_urban rail rail_electric rail_fast ship" speed="19.44" length="0.49" shape="3493.45,1750.54 3493.41,1750.52 3493.39,1750.49 3493.36,1750.47 3493.33,1750.44"/>
        <lane id=":1108187917_0_1" index="1" disallow="pedestrian bicycle tram rail_urban rail rail_electric rail_fast ship" speed="19.44" length="0.49" shape="3491.55,1753.12 3491.43,1753.03 3491.36,1752.97 3491.28,1752.90 3491.17,1752.81"/>
        <lane id=":1108187917_0_2" index="2" disallow="pedestrian bicycle tram rail_urban rail rail_electric rail_fast ship" speed="19.44" length="0.49" shape="3489.65,1755.69 3489.45,1755.55 3489.32,1755.44 3489.20,1755.34 3489.02,1755.17"/>
    </edge>
    <edge id=":1108187929_0" function="internal">
        <lane id=":1108187929_0_0" index="0" disallow="tram rail_urban rail rail_electric rail_fast ship" speed="27.78" length="0.10" shape="3320.97,1637.88 3320.97,1637.88"/>
    </edge>
    <edge id=":1108187969_0" function="internal">
        <lane id=":1108187969_0_0" index="0" disallow="tram rail_urban rail rail_electric rail_fast ship" speed="16.67" length="0.33" shape="4404.93,2456.96 4405.14,2457.05"/>
        <lane id=":1108187969_0_1" index="1" disallow="tram rail_urban rail rail_electric rail_fast ship" speed="16.67" length="0.33" shape="4406.20,2454.02 4406.47,2454.14"/>
        <lane id=":1108187969_0_2" index="2" disallow="tram rail_urban rail rail_electric rail_fast ship" speed="16.67" length="0.33" shape="4407.47,2451.08 4407.80,2451.23"/>
        <lane id=":1108187969_0_3" index="3" disallow="tram rail_urban rail rail_electric rail_fast ship" speed="16.67" length="0.33" shape="4408.73,2448.14 4409.14,2448.32"/>
    </edge>
    <edge id=":1108187993_0" function="internal">
        <lane id=":1108187993_0_0" index="0" disallow="tram rail_urban rail rail_electric rail_fast ship" speed="8.33" length="0.10" shape="4268.71,2373.17 4268.71,2373.17"/>
    </edge>
    <edge id=":1108187993_1" function="internal">
        <lane id=":1108187993_1_0" index="0" disallow="tram rail_urban rail rail_electric rail_fast ship" speed="8.33" length="0.10" shape="4271.56,2374.63 4271.56,2374.63"/>
    </edge>
    <edge id=":1108188024_0" function="internal">
        <lane id=":1108188024_0_0" index="0" disallow="tram rail_urban rail rail_electric rail_fast ship" speed="16.67" length="0.29" shape="4165.59,2346.61 4165.91,2346.76"/>
        <lane id=":1108188024_0_1" index="1" disallow="tram rail_urban rail rail_electric rail_fast ship" speed="16.67" length="0.29" shape="4166.97,2343.72 4167.25,2343.86"/>
        <lane id=":1108188024_0_2" index="2" disallow="tram rail_urban rail rail_electric rail_fast ship" speed="16.67" length="0.29" shape="4168.34,2340.83 4168.60,2340.95"/>
        <lane id=":1108188024_0_3" index="3" disallow="tram rail_urban rail rail_electric rail_fast ship" speed="16.67" length="0.29" shape="4169.72,2337.95 4169.94,2338.05"/>
    </edge>
    <edge id=":1108247089_0" function="internal">
        <lane id=":1108247089_0_0" index="0" disallow="pedestrian bicycle tram rail_urban rail rail_electric rail_fast ship" speed="19.44" length="4.95" shape="2881.11,882.68 2879.51,877.95"/>
        <lane id=":1108247089_0_1" index="1" disallow="pedestrian bicycle tram rail_urban rail rail_electric rail_fast ship" speed="19.44" length="4.95" shape="2878.07,883.69 2876.49,879.00"/>
        <lane id=":1108247089_0_2" index="2" disallow="pedestrian bicycle tram rail_urban rail rail_electric rail_fast ship" speed="19.44" length="4.95" shape="2875.04,884.69 2873.46,880.04"/>
    </edge>
    <edge id=":1108247169_0" function="internal">
        <lane id=":1108247169_0_0" index="0" disallow="pedestrian bicycle tram rail_urban rail rail_electric rail_fast ship" speed="19.44" length="4.94" shape="3058.54,1253.08 3055.98,1248.80"/>
        <lane id=":1108247169_0_1" index="1" disallow="pedestrian bicycle tram rail_urban rail rail_electric rail_fast ship" speed="19.44" length="4.94" shape="3055.78,1254.70 3053.25,1250.47"/>
        <lane id=":1108247169_0_2" index="2" disallow="pedestrian bicycle tram rail_urban rail rail_electric rail_fast ship" speed="19.44" length="4.94" shape="3053.03,1256.33 3050.51,1252.13"/>
    </edge>
    <edge id=":1108247190_0" function="internal">
        <lane id=":1108247190_0_0" index="0" disallow="pedestrian bicycle tram rail_urban rail rail_electric rail_fast ship" speed="19.44" length="5.68" shape="2897.35,872.90 2899.42,878.41"/>
        <lane id=":1108247190_0_1" index="1" disallow="pedestrian bicycle tram rail_urban rail rail_electric rail_fast ship" speed="19.44" length="5.68" shape="2900.38,871.87 2902.38,877.19"/>
        <lane id=":1108247190_0_2" index="2" disallow="pedestrian bicycle tram rail_urban rail rail_electric rail_fast ship" speed="19.44" length="5.68" shape="2903.41,870.84 2905.34,875.96"/>
    </edge>
    <edge id=":1108247192_0" function="internal">
        <lane id=":1108247192_0_0" index="0" allow="bicycle" speed="8.33" length="5.41" width="1.00" shape="2910.92,874.00 2909.24,868.86"/>
    </edge>
    <edge id=":1108247192_1" function="internal">
        <lane id=":1108247192_1_0" index="0" allow="bicycle" speed="2.04" length="0.73" width="1.00" shape="2910.92,874.00 2910.56,873.73 2910.28,873.69"/>
    </edge>
    <edge id=":1108247192_4" function="internal">
        <lane id=":1108247192_4_0" index="0" allow="bicycle" speed="2.04" length="0.73" width="1.00" shape="2910.28,873.69 2910.08,873.89 2909.97,874.33"/>
    </edge>
    <edge id=":1108247192_2" function="internal">
        <lane id=":1108247192_2_0" index="0" allow="bicycle" speed="8.33" length="5.44" width="1.00" shape="2908.28,869.15 2909.97,874.33"/>
    </edge>
    <edge id=":1108247192_3" function="internal">
        <lane id=":1108247192_3_0" index="0" allow="bicycle" speed="2.04" length="0.73" width="1.00" shape="2908.28,869.15 2908.63,869.44 2908.91,869.48"/>
    </edge>
    <edge id=":1108247192_5" function="internal">
        <lane id=":1108247192_5_0" index="0" allow="bicycle" speed="2.04" length="0.73" width="1.00" shape="2908.91,869.48 2909.11,869.29 2909.24,868.86"/>
    </edge>
    <edge id=":1108247227_0" function="internal">
        <lane id=":1108247227_0_0" index="0" disallow="pedestrian bicycle tram rail_urban rail rail_electric rail_fast ship" speed="19.44" length="0.30" shape="3226.06,1453.19 3226.26,1453.44"/>
        <lane id=":1108247227_0_1" index="1" disallow="pedestrian bicycle tram rail_urban rail rail_electric rail_fast ship" speed="19.44" length="0.30" shape="3228.58,1451.22 3228.76,1451.45"/>
        <lane id=":1108247227_0_2" index="2" disallow="pedestrian bicycle tram rail_urban rail rail_electric rail_fast ship" speed="19.44" length="0.30" shape="3231.10,1449.25 3231.27,1449.45"/>
    </edge>
    <edge id=":1108247234_0" function="internal">
        <lane id=":1108247234_0_0" index="0" disallow="pedestrian bicycle tram rail_urban rail rail_electric rail_fast ship" speed="19.44" length="0.29" shape="2891.39,912.14 2891.31,911.90"/>
        <lane id=":1108247234_0_1" index="1" disallow="pedestrian bicycle tram rail_urban rail rail_electric rail_fast ship" speed="19.44" length="0.29" shape="2888.37,913.20 2888.27,912.92"/>
        <lane id=":1108247234_0_2" index="2" disallow="pedestrian bicycle tram rail_urban rail rail_electric rail_fast ship" speed="19.44" length="0.29" shape="2885.35,914.25 2885.24,913.94"/>
    </edge>
    <edge id=":1108247251_0" function="internal">
        <lane id=":1108247251_0_0" index="0" disallow="pedestrian bicycle tram rail_urban rail rail_electric rail_fast ship" speed="19.44" length="0.30" shape="3239.98,1496.69 3239.79,1496.48"/>
        <lane id=":1108247251_0_1" index="1" disallow="pedestrian bicycle tram rail_urban rail rail_electric rail_fast ship" speed="19.44" length="0.30" shape="3237.60,1498.83 3237.40,1498.61"/>
        <lane id=":1108247251_0_2" index="2" disallow="pedestrian bicycle tram rail_urban rail rail_electric rail_fast ship" speed="19.44" length="0.30" shape="3235.22,1500.97 3235.01,1500.74"/>
    </edge>
    <edge id=":1108247262_0" function="internal">
        <lane id=":1108247262_0_0" index="0" disallow="tram rail_urban rail rail_electric rail_fast ship" speed="22.22" length="0.10" shape="3208.85,1492.44 3208.85,1492.44"/>
    </edge>
    <edge id=":1108247266_0" function="internal">
        <lane id=":1108247266_0_0" index="0" disallow="pedestrian bicycle tram rail_urban rail rail_electric rail_fast ship" speed="6.51" length="8.92" shape="3080.62,1260.40 3082.82,1259.35 3084.84,1259.24 3086.68,1260.09 3088.33,1261.88"/>
    </edge>
    <edge id=":1108247266_1" function="internal">
        <lane id=":1108247266_1_0" index="0" disallow="pedestrian bicycle tram rail_urban rail rail_electric rail_fast ship" speed="19.44" length="10.58" shape="3082.59,1252.62 3084.16,1255.45 3085.28,1257.36 3086.50,1259.21 3088.33,1261.88"/>
        <lane id=":1108247266_1_1" index="1" disallow="pedestrian bicycle tram rail_urban rail rail_electric rail_fast ship" speed="19.44" length="10.58" shape="3085.39,1251.08 3086.92,1253.82 3088.01,1255.68 3089.19,1257.47 3090.96,1260.06"/>
        <lane id=":1108247266_1_2" index="2" disallow="pedestrian bicycle tram rail_urban rail rail_electric rail_fast ship" speed="19.44" length="10.58" shape="3088.20,1249.54 3089.67,1252.20 3090.73,1253.99 3091.87,1255.73 3093.60,1258.24"/>
    </edge>
    <edge id=":1108247275_0" function="internal">
        <lane id=":1108247275_0_0" index="0" disallow="pedestrian bicycle tram rail_urban rail rail_electric rail_fast ship" speed="19.44" length="4.96" shape="3004.87,1160.92 3002.41,1156.58"/>
        <lane id=":1108247275_0_1" index="1" disallow="pedestrian bicycle tram rail_urban rail rail_electric rail_fast ship" speed="19.44" length="4.96" shape="3002.08,1162.49 2999.64,1158.17"/>
        <lane id=":1108247275_0_2" index="2" disallow="pedestrian bicycle tram rail_urban rail rail_electric rail_fast ship" speed="19.44" length="4.96" shape="2999.29,1164.05 2996.86,1159.76"/>
    </edge>
    <edge id=":1108247302_0" function="internal">
        <lane id=":1108247302_0_0" index="0" disallow="pedestrian bicycle tram rail_urban rail rail_electric rail_fast ship" speed="19.44" length="0.30" shape="3213.48,1467.20 3213.28,1466.98"/>
        <lane id=":1108247302_0_1" index="1" disallow="pedestrian bicycle tram rail_urban rail rail_electric rail_fast ship" speed="19.44" length="0.30" shape="3211.12,1469.36 3210.92,1469.14"/>
        <lane id=":1108247302_0_2" index="2" disallow="pedestrian bicycle tram rail_urban rail rail_electric rail_fast ship" speed="19.44" length="0.30" shape="3208.76,1471.52 3208.55,1471.30"/>
    </edge>
    <edge id=":1147821342_0" function="internal">
        <lane id=":1147821342_0_0" index="0" disallow="tram rail_urban rail rail_electric rail_fast ship" speed="6.95" length="7.90" shape="2341.58,1097.94 2339.88,1096.85 2338.74,1095.41 2338.16,1093.61 2338.14,1091.46"/>
    </edge>
    <edge id=":1147821342_1" function="internal">