<?xml version="1.0" encoding="UTF-8"?>

<!-- generated on 01/25/21 11:58:01 by Eclipse SUMO polyconvert Version 1.8.0
<configuration xmlns:xsi="http://www.w3.org/2001/XMLSchema-instance" xsi:noNamespaceSchemaLocation="http://sumo.dlr.de/xsd/polyconvertConfiguration.xsd">

    <input>
        <net-file value="map.net.xml"/>
        <osm-files value="map.osm"/>
        <type-file value="typemap.xml"/>
    </input>

    <output>
        <output-file value="map.poly.xml"/>
    </output>

    <processing>
        <poi-layer-offset value="5"/>
    </processing>

    <report>
        <xml-validation value="never"/>
    </report>

</configuration>
-->

<additional xmlns:xsi="http://www.w3.org/2001/XMLSchema-instance" xsi:noNamespaceSchemaLocation="http://sumo.dlr.de/xsd/additional_file.xsd">
    <location netOffset="-682757.55,2543161.55" convBoundary="-81.55,-459.56,7325.49,4099.86" origBoundary="-43.217974,-22.990314,-43.146107,-22.949191" projParameter="+proj=utm +zone=23 +ellps=WGS84 +datum=WGS84 +units=m +no_defs"/>

    <poly id="100555349" type="building" color="255,230,230" fill="1" layer="-1.00" shape="3849.467481,2146.725914 3894.381037,2069.260322 3989.348103,2123.670247 3944.445215,2201.147087 3849.467481,2146.725914"/>
    <poly id="100555349#1" type="tourism" color="207,245,201" fill="1" layer="-2.00" shape="3849.467481,2146.725914 3894.381037,2069.260322 3989.348103,2123.670247 3944.445215,2201.147087 3849.467481,2146.725914"/>
    <poly id="115810996" type="building" color="255,230,230" fill="1" layer="-1.00" shape="4213.569954,2166.450874 4211.982892,2163.358359 4215.233926,2161.700934 4216.831380,2164.804395 4213.569954,2166.450874"/>
    <poly id="115810999" type="building" color="255,230,230" fill="1" layer="-1.00" shape="4222.199514,2170.928936 4220.520024,2167.826495 4223.790328,2166.069149 4225.469957,2169.182663 4222.199514,2170.928936"/>
    <poly id="115811105" type="building" color="255,230,230" fill="1" layer="-1.00" shape="3539.442891,1773.899655 3546.315339,1779.795345 3548.418417,1777.365914 3541.545969,1771.470226 3539.442891,1773.899655"/>
    <poly id="115811107" type="building" color="255,230,230" fill="1" layer="-1.00" shape="3569.163459,1761.470378 3568.706230,1756.846469 3573.685831,1756.474686 3574.214839,1761.097706 3569.163459,1761.470378"/>
    <poly id="115811108" type="building" color="255,230,230" fill="1" layer="-1.00" shape="3609.089259,1826.122159 3610.846029,1823.885293 3603.887283,1818.478022 3602.130513,1820.714887 3609.089259,1826.122159"/>
    <poly id="115811110" type="building" color="255,230,230" fill="1" layer="-1.00" shape="3553.611256,1749.490962 3552.781460,1744.594778 3557.811778,1744.178071 3558.425831,1749.043699 3553.611256,1749.490962"/>
    <poly id="115811111" type="building" color="255,230,230" fill="1" layer="-1.00" shape="3615.735280,1830.292842 3622.509875,1835.735616 3624.297955,1833.542663 3617.523224,1828.088816 3615.735280,1830.292842"/>
    <poly id="115811113" type="building" color="255,230,230" fill="1" layer="-1.00" shape="3532.897811,1769.594786 3526.106034,1763.587337 3528.260657,1761.179422 3535.062551,1767.175669 3532.897811,1769.594786"/>
    <poly id="115811369" type="building" color="255,230,230" fill="1" layer="-1.00" shape="3116.585550,1324.834437 3121.832228,1331.979762 3124.251258,1330.222092 3119.004579,1323.076767 3116.585550,1324.834437"/>
    <poly id="115811370" type="building" color="255,230,230" fill="1" layer="-1.00" shape="4296.791642,2240.320711 4298.307428,2237.676961 4306.219389,2242.174975 4304.703604,2244.818726 4296.791642,2240.320711"/>
    <poly id="115811373" type="building" color="255,230,230" fill="1" layer="-1.00" shape="3304.329189,1524.730259 3304.317083,1521.263773 3311.587726,1521.229228 3311.609676,1524.662366 3314.583559,1524.647736 3314.599365,1528.413216 3311.020369,1528.424255 3307.820902,1528.441675 3307.805645,1524.720490 3304.329189,1524.730259"/>
    <poly id="115811375" type="building" color="255,230,230" fill="1" layer="-1.00" shape="3185.664409,1424.358081 3180.245547,1417.392109 3182.490682,1415.669806 3187.909545,1422.635777 3185.664409,1424.358081"/>
    <poly id="115811377" type="building" color="255,230,230" fill="1" layer="-1.00" shape="4205.284121,2193.766474 4197.877707,2189.505793 4199.393916,2186.895275 4206.800329,2191.155955 4205.284121,2193.766474"/>
    <poly id="115811380" type="building" color="255,230,230" fill="1" layer="-1.00" shape="4212.603552,2197.629512 4220.236946,2201.998122 4221.702982,2199.476830 4214.069451,2195.097147 4212.603552,2197.629512"/>
    <poly id="115811384" type="building" color="255,230,230" fill="1" layer="-1.00" shape="3175.903343,1411.243493 3178.473860,1409.295658 3172.959848,1402.098275 3170.389332,1404.046109 3175.903343,1411.243493"/>
    <poly id="115811386" type="building" color="255,230,230" fill="1" layer="-1.00" shape="3126.205432,1338.980822 3131.154352,1346.096598 3133.635590,1344.393535 3128.686669,1337.277760 3126.205432,1338.980822"/>
    <poly id="115811387" type="building" color="255,230,230" fill="1" layer="-1.00" shape="4289.419449,2237.167202 4290.914590,2234.512634 4283.075932,2230.135532 4281.570537,2232.790227 4289.419449,2237.167202"/>
    <poly id="115811389" type="building" color="255,230,230" fill="1" layer="-1.00" shape="3236.530113,1439.234999 3236.359710,1436.235641 3239.710910,1436.050226 3239.881312,1439.049584 3236.530113,1439.234999"/>
    <poly id="115811391" type="amenity" color="237,199,199" fill="1" layer="-1.00" shape="3311.275200,1534.102843 3311.293406,1528.941427 3316.339247,1528.956548 3316.310925,1534.129165 3311.275200,1534.102843"/>
    <poly id="115811391#1" type="building" color="255,230,230" fill="1" layer="-1.00" shape="3311.275200,1534.102843 3311.293406,1528.941427 3316.339247,1528.956548 3316.310925,1534.129165 3311.275200,1534.102843"/>
    <poly id="115811392" type="building" color="255,230,230" fill="1" layer="-1.00" shape="3230.307594,1431.968865 3234.090819,1431.888865 3234.005993,1428.345749 3230.222769,1428.425749 3230.307594,1431.968865"/>
    <poly id="115811469" type="building" color="255,230,230" fill="1" layer="-1.00" shape="3034.896180,1132.520664 3036.009697,1129.682656 3039.018504,1130.841646 3037.894734,1133.679781 3034.896180,1132.520664"/>
    <poly id="115811470" type="building" color="255,230,230" fill="1" layer="-1.00" shape="3040.361766,1138.301020 3038.924513,1141.497443 3042.028476,1142.887843 3043.475983,1139.691293 3040.361766,1138.301020"/>
    <poly id="115811471" type="water" color="181,209,209" fill="0" layer="-4.00" shape="3247.798083,1456.439937 3346.109430,1376.322064"/>
    <poly id="134013051" type="building" color="255,230,230" fill="1" layer="-1.00" shape="3869.864723,2499.738374 3893.320498,2509.670228 3897.207559,2500.573307 3873.762049,2490.641333 3869.864723,2499.738374"/>
    <poly id="134013055" type="building" color="255,230,230" fill="1" layer="-1.00" shape="3898.055431,2513.532248 3915.861830,2528.562426 3922.442759,2520.838680 3904.626244,2505.819711 3898.055431,2513.532248"/>
    <poly id="134013057" type="building" color="255,230,230" fill="1" layer="-1.00" shape="3903.994998,2550.849605 3906.630554,2558.270757 3930.648311,2549.832347 3928.023135,2542.422145 3903.994998,2550.849605"/>
    <poly id="134013062" type="building" color="255,230,230" fill="1" layer="-1.00" shape="3898.122855,2538.816866 3901.378486,2546.617972 3925.010718,2536.866362 3921.755075,2529.065260 3898.122855,2538.816866"/>
    <poly id="134013759" type="building" color="255,230,230" fill="1" layer="-1.00" shape="3704.353580,1977.562766 3717.411482,1959.547188 3695.009014,1943.499461 3681.951103,1961.515020 3704.353580,1977.562766"/>
    <poly id="134013760" type="building" color="255,230,230" fill="1" layer="-1.00" shape="3858.455560,2071.788096 3879.793283,2084.647980 3857.951669,2120.471351 3836.613919,2107.611434 3858.455560,2071.788096"/>
    <poly id="134013926" type="building" color="255,230,230" fill="1" layer="-1.00" shape="3493.577614,2016.467655 3513.890890,2030.282126 3494.598040,2058.309417 3474.284749,2044.494919 3493.577614,2016.467655"/>
    <poly id="134013929" type="building" color="255,230,230" fill="1" layer="-1.00" shape="3397.693800,2135.608384 3421.631758,2153.088441 3397.836766,2185.302443 3373.898791,2167.822347 3397.693800,2135.608384"/>
    <poly id="134013930" type="building" color="255,230,230" fill="1" layer="-1.00" shape="3585.266250,1966.965670 3607.059132,1983.486274 3586.863811,2009.841402 3565.060802,1993.331968 3585.266250,1966.965670"/>
    <poly id="140123291" type="residential" color="235,235,227" fill="1" layer="-3.00" shape="2578.582215,1537.609234 2592.443182,1563.067115 2583.981744,1568.000265 2556.815253,1583.818428 2535.686816,1596.117701 2531.709617,1598.769419 2517.947185,1607.954341 2479.846272,1591.123625 2447.181216,1504.350795 2548.433258,1477.807584 2577.112258,1531.502607 2566.221366,1536.521054 2549.680963,1544.134288 2521.974844,1556.104773 2520.786630,1556.219085 2505.867132,1563.048098 2505.062892,1565.195567 2512.552272,1569.599979 2558.366520,1547.405321 2570.875226,1541.348008 2578.582215,1537.609234"/>
    <poly id="140123300" type="residential" color="235,235,227" fill="1" layer="-3.00" shape="2514.870413,1405.588029 2546.203443,1476.616748 2517.090085,1484.229757 2483.959245,1492.888968 2451.807987,1488.655278 2434.446894,1492.080888 2426.648645,1475.076366 2416.371226,1475.778797 2391.701947,1479.515822 2388.061663,1463.711637 2408.462090,1459.761348 2407.025539,1428.867411 2353.429142,1435.341625 2347.107243,1395.791417 2501.606402,1377.785818 2512.354451,1400.313864 2402.532950,1409.640325 2400.199175,1414.165688 2406.628910,1418.306300 2514.870413,1405.588029"/>
    <poly id="140123306" type="residential" color="235,235,227" fill="1" layer="-3.00" shape="3198.368404,2142.768834 3348.409572,2222.274688 3326.816890,2259.268089 3302.792774,2250.582896 3291.802689,2264.197660 3272.570505,2255.707913 3258.732518,2276.224666 3240.573497,2268.264314 3253.562261,2244.590482 3246.868469,2240.708188 3235.085478,2254.066894 3211.282340,2241.679612 3163.713775,2304.622421 3132.509107,2303.291192 3125.815394,2313.530100 3136.790459,2320.272420 3126.079785,2334.935766 3107.345019,2323.537886 3098.987753,2335.270366 3062.870095,2315.636496 3106.363945,2265.691621 3198.368404,2142.768834"/>
    <poly id="140123312" type="residential" color="235,235,227" fill="1" layer="-3.00" shape="3592.215903,2348.464670 3542.782009,2411.420790 3556.072905,2433.717414 3555.996401,2448.249442 3549.192776,2457.050098 3538.848785,2458.230315 3527.649047,2455.732970 3447.055856,2384.340738 3443.122903,2388.088619 3454.761986,2405.377472 3456.722717,2413.814904 3450.700685,2442.685747 3466.852167,2459.121328 3464.474133,2481.611893 3467.481612,2488.441499 3500.498987,2516.042908 3548.232522,2546.840132 3632.286166,2601.066312 3621.275947,2613.884125 3678.953973,2657.560500 3703.310396,2629.248790 3662.989919,2591.703809 3665.446286,2575.558498 3777.309688,2439.826354 3723.532737,2417.112332 3647.652475,2511.839884 3633.452075,2502.247139 3706.754944,2413.886796 3705.632778,2409.404034 3592.215903,2348.464670"/>
    <poly id="140123408" type="residential" color="235,235,227" fill="1" layer="-3.00" shape="2796.451359,1741.680793 2740.776967,1677.021974 2734.222260,1669.416404 2727.074487,1661.120389 2716.867712,1649.262552 2707.628761,1638.544628 2635.537137,1554.816524 2615.607773,1568.707086 2675.126023,1672.393206 2765.764534,1771.431389 2796.451359,1741.680793"/>
    <poly id="140123412" type="residential" color="235,235,227" fill="1" layer="-3.00" shape="2850.789751,1912.492291 2904.804550,1844.210047 2796.451359,1741.680793 2765.764534,1771.431389 2742.982447,1793.519905 2764.571691,1837.710696 2850.789751,1912.492291"/>
    <poly id="140123414" type="residential" color="235,235,227" fill="1" layer="-3.00" shape="1500.593232,691.996648 1676.075479,746.640373 1680.121295,773.005655 1711.611174,784.503376 1704.029393,816.825873 1506.443599,757.701885 1500.593232,691.996648"/>
    <poly id="140123422" type="residential" color="235,235,227" fill="1" layer="-3.00" shape="3367.047017,2230.771694 3463.339037,2282.953361 3415.019986,2350.657716 3395.725564,2337.151677 3423.745606,2304.054771 3349.855206,2258.728463 3367.047017,2230.771694"/>
    <poly id="140123427" type="residential" color="235,235,227" fill="1" layer="-3.00" shape="2601.353316,1574.575510 2641.825001,1646.466126 2627.544920,1651.925093 2599.335401,1626.378209 2572.998517,1623.800890 2559.647958,1596.487100 2601.353316,1574.575510"/>
    <poly id="148993687" type="amenity" color="237,199,199" fill="1" layer="-1.00" shape="2735.152101,2351.344134 2757.038842,2324.770109 2752.563374,2321.126069 2761.889844,2309.791648 2760.460140,2308.624196 2762.976200,2305.569576 2747.104817,2292.640786 2776.751793,2256.645512 2791.141512,2268.352085 2808.421838,2282.426382 2781.634531,2314.953067 2785.467818,2318.084468 2764.177132,2343.920211 2750.384278,2360.670215 2749.358722,2359.841121 2747.843089,2361.687255 2743.502286,2358.152307 2735.152101,2351.344134"/>
    <poly id="148993687#1" type="building" color="255,230,230" fill="1" layer="-1.00" shape="2735.152101,2351.344134 2757.038842,2324.770109 2752.563374,2321.126069 2761.889844,2309.791648 2760.460140,2308.624196 2762.976200,2305.569576 2747.104817,2292.640786 2776.751793,2256.645512 2791.141512,2268.352085 2808.421838,2282.426382 2781.634531,2314.953067 2785.467818,2318.084468 2764.177132,2343.920211 2750.384278,2360.670215 2749.358722,2359.841121 2747.843089,2361.687255 2743.502286,2358.152307 2735.152101,2351.344134"/>
    <poly id="164102097" type="tourism" color="207,245,201" fill="1" layer="-2.00" shape="1752.030545,1270.628729 1750.647133,1274.056929 1748.646471,1278.998958 1748.229141,1286.779027 1751.209420,1296.488847 1756.159609,1302.929405 1763.284106,1307.715202 1771.114537,1309.856385 1781.644781,1308.874400 1789.563873,1304.867623 1795.698621,1298.357535 1798.569668,1292.474484 1799.915629,1283.486872 1798.818326,1276.799700 1794.543087,1268.534505 1788.608891,1262.969915 1779.660156,1259.114695 1768.901174,1259.003020 1757.136880,1264.718269 1752.030545,1270.628729"/>
    <poly id="176886419" type="building" color="255,230,230" fill="1" layer="-1.00" shape="3061.152703,2095.155718 3055.323125,2096.468158 3045.356032,2084.131299 3047.163361,2078.504783 3053.408159,2076.766350 3063.800875,2090.349479 3061.152703,2095.155718"/>
    <poly id="179496798" type="natural" color="140,196,107" fill="0" layer="-4.00" shape="4541.696787,2315.578983 4529.929299,2309.500955 4511.574161,2303.981144 4509.234502,2303.877351 4502.648575,2305.399126 4499.899429,2305.355804 4453.361057,2285.013039 4450.855662,2283.128131 4447.914669,2278.380067 4446.727347,2276.921785 4445.035434,2276.123239 4422.183694,2266.937866 4420.949725,2266.676325 4417.505217,2266.796695 4415.308163,2266.613585 4411.155327,2264.206458 4409.751429,2262.651187 4407.426541,2257.961908 4404.776005,2255.126299 4395.682463,2247.984890 4393.046391,2246.312035 4390.276876,2244.629763 4387.024718,2242.898114 4384.671437,2241.697990 4381.206418,2240.168348 4368.298981,2236.430249 4364.089665,2235.253200 4362.507878,2235.062433 4356.664489,2237.737847 4354.532408,2237.830810 4325.429824,2223.284915 4287.601412,2200.640431 4285.089378,2197.393286 4282.441290,2184.024764 4281.186961,2182.124281 4278.970309,2181.188257 4269.134417,2186.925814 4264.880527,2187.111588 4241.651775,2177.277188 4236.362631,2172.558268 4229.000405,2166.901532 4226.785620,2165.289869 4212.269414,2159.179312 4209.092444,2158.543175 4203.326016,2159.157520 4198.086144,2158.403027 4124.164320,2119.792554 4119.710919,2115.473014 4114.391308,2108.295661 4108.128017,2102.758132 4095.223809,2093.481995 4092.722010,2091.054287 4087.600292,2088.249313 4078.757937,2085.623440 4074.488816,2084.579965 4069.400983,2085.329818 4062.790459,2084.038520 4036.300260,2066.735092 4034.758936,2064.018563 4034.456504,2061.962264 4033.684657,2055.138229 4031.717825,2052.017187 4027.965112,2048.785405 4022.151166,2045.568133 4013.432066,2041.301513 4005.396567,2036.749515 3998.644300,2035.603933 3988.630860,2037.777183 3982.704015,2037.031145 3935.612366,2010.812650 3933.643999,2006.739118 3933.869803,2003.446879 3953.297510,1972.305048 3956.298714,1970.351738 3963.196070,1972.448034 4008.125483,2002.115621 4011.158988,2002.764654 4015.544424,2001.613742 4019.362746,1998.564872 4022.034439,1992.373702 4021.026423,1988.830962 4008.787266,1977.763343 3999.087412,1972.146599 3969.420376,1953.365151 3965.806173,1949.721843 3963.699194,1946.048755 3962.129088,1941.837378 3958.796613,1939.408883 3837.229601,1862.834320 3833.085260,1861.922142 3827.211183,1864.597737 3820.425582,1872.335080 3803.668672,1907.142848 3800.726777,1913.880026 3797.455570,1916.390429 3794.153746,1916.431366 3778.079599,1907.050304 3774.024721,1901.773237 3773.580649,1899.043084 3772.087322,1895.229460 3771.647506,1892.842595 3770.736730,1891.347613 3768.996197,1889.929369 3762.352848,1885.980226 3760.123647,1884.025338 3754.366410,1880.408549 3747.726364,1876.725172 3745.574024,1875.179124 3744.681096,1875.123738 3741.930434,1875.778063 3736.336492,1878.715961 3735.029048,1879.141961 3733.579791,1878.883035 3704.023100,1857.375156 3703.448109,1855.665573 3705.856723,1849.754615 3705.410918,1847.711165 3704.429196,1846.283512 3703.044997,1845.481076 3697.908210,1841.446784 3694.445930,1839.296732 3689.162160,1834.987370 3682.375302,1831.039974 3680.576690,1829.899329 3676.863078,1829.812437 3670.697487,1832.137166 3667.062376,1832.592000 3664.993766,1832.008476 3644.099465,1816.816972 3641.163754,1812.467430 3640.147470,1808.249167 3637.996553,1801.021339 3634.716254,1792.035417 3631.370425,1788.521620 3628.203819,1787.885240 3613.374418,1790.383721 3610.500721,1791.039546 3607.056298,1790.329074 3604.219572,1789.001920 3576.074125,1765.482741 3575.043968,1762.626937 3575.079582,1757.221637 3574.570491,1755.034987 3573.664954,1753.960800 3566.916786,1748.163264 3562.475452,1744.795925 3558.937323,1742.314519 3552.130934,1736.783511 3549.984668,1735.724686 3546.968932,1736.504089 3543.722274,1740.996653 3542.283182,1741.557173 3540.357186,1740.894339 3509.916221,1715.841825 3509.630150,1714.272642 3512.369513,1707.737394 3512.189626,1704.804606 3511.418083,1703.784134 3509.746906,1702.165646 3505.157902,1697.637191 3501.537872,1694.337198 3496.811213,1690.286692 3493.960945,1687.863210 3489.737473,1685.523180 3485.678668,1684.886741 3483.822705,1684.909716 3482.026620,1684.799043 3478.519773,1684.842452 3476.254475,1684.936946 3474.114117,1684.354285 3451.455185,1664.931386 3450.258415,1662.697867 3450.092084,1660.030724 3451.344443,1655.983734 3452.078699,1653.992127 3451.161116,1651.943437 3449.413925,1649.982542 3445.521424,1646.209662 3440.238617,1641.966665 3437.106304,1639.125794 3431.194838,1633.805173 3429.041744,1632.192641 3426.773850,1632.076725 3420.742686,1633.657632 3419.089341,1633.478732 3415.497986,1632.493150 3397.944044,1619.508339 3397.167580,1618.089204 3394.842121,1607.518705 3393.710176,1605.550192 3383.569948,1591.654047 3382.384154,1590.306429 3379.601454,1587.538751 3376.757938,1585.657867 3373.214673,1582.755616 3365.725800,1577.587394 3364.067257,1576.987683 3357.865569,1576.388798 3354.129013,1574.441429 3341.449450,1560.864636 3340.534489,1559.026343 3339.944344,1556.087555 3339.120494,1550.836875 3338.062098,1548.180767 3328.705279,1537.088082 3327.229902,1534.714019 3325.344373,1532.345030 3322.979380,1530.181330 3318.659687,1525.859929 3314.569707,1522.698616 3311.932110,1520.881627 3309.928488,1519.743479 3304.000256,1518.864304 3301.575407,1517.664911 3288.128528,1503.399813 3287.702353,1502.109248 3288.364845,1500.118537 3288.341153,1498.202766 3287.702113,1497.114193 3285.912063,1496.660083 3283.656928,1497.574012 3282.206897,1497.248603 3278.223118,1491.893015 3278.324374,1489.300093 3278.916852,1486.623567 3278.204514,1484.583405 3276.052280,1483.037297 3272.269452,1483.150528 3269.717201,1482.428953 3247.798083,1456.439937 3234.521882,1439.381658 3234.085444,1437.260555 3234.869464,1434.315851 3234.076991,1430.770409 3228.014358,1419.016715 3211.638023,1401.708784 3207.804566,1397.724687 3204.352592,1396.393996 3200.890626,1394.254916 3196.988683,1390.537475 3186.519635,1372.414439 3185.392922,1370.036056 3185.354049,1366.891091 3188.167721,1361.385009 3187.725406,1358.787731 3181.643608,1350.456593 3176.518694,1342.379438 3171.073207,1335.746060 3168.654409,1334.203233 3166.725074,1334.094172 3160.692371,1335.542096 3157.577966,1334.140770 3155.416459,1331.841627 3132.507698,1297.934638 3131.570061,1294.258081 3132.014761,1291.240047 3139.001981,1277.408994 3139.099834,1274.539227 3138.262710,1273.187285 3136.464902,1272.932614 3117.173997,1275.352871 3115.029472,1274.426876 3094.201416,1241.247265 3094.027492,1238.790651 3096.058860,1230.558602 3096.023423,1227.690484 3095.380295,1225.439026 3083.933268,1206.165090 3074.137828,1192.740762 3071.850718,1191.063389 3065.427995,1189.160218 3063.835400,1188.083417 3056.036022,1175.188196 3054.282364,1171.865056 3054.267180,1170.635862 3055.605591,1167.739697 3055.517811,1166.444947 3054.164037,1162.286205 3054.751481,1160.030620 3058.575493,1157.447091 3059.077619,1154.096085 3057.283333,1147.484022 3055.201949,1140.875505 3051.774629,1135.723431 3047.369805,1130.306543 3042.657805,1127.418663 3040.250953,1126.839241 3033.301517,1127.124439 3030.403449,1125.797948 3028.652952,1123.560166 2986.097917,1040.809016 2985.092655,1037.465552 2984.774512,1034.124679 2985.568650,1026.184812 2985.122956,1023.310684 2980.011885,1004.711577 2975.593718,997.378775 2969.096019,989.396045 2966.734579,987.509143 2962.101249,985.174046 2958.893284,982.001761 2955.797556,976.291800 2922.919319,897.319608 2921.194291,891.326907 2920.719901,886.127278 2921.209328,881.746413 2925.289066,866.655513 2926.063943,862.138217 2925.577658,856.805828 2923.739572,852.453698 2915.668822,839.151980 2912.803630,835.499209 2909.878423,832.799673 2905.722818,830.115325 2902.789138,826.729211 2897.499258,810.247713 2897.315386,806.152047 2899.697029,801.371257 2900.056169,799.727649 2900.235398,797.632167 2896.684081,777.441064 2894.813886,770.486585 2884.904185,747.771228 2881.040626,741.328676 2877.270714,736.657046 2875.174405,733.814367 2872.028179,724.007082 2872.130990,721.535976 2874.817352,716.518842 2880.483722,707.012570 2879.798265,702.158886 2877.136530,698.370694 2870.379947,685.185643 2865.973681,673.821189 2864.831071,670.147150 2863.679027,666.539681 2860.845056,659.597095 2859.785030,651.813025 2861.170878,641.130212 2863.586268,636.592670 2864.593136,634.254386 2864.571130,632.471502 2863.651355,630.234528 2860.671234,628.897950 2854.761993,623.710023 2851.553304,619.640616 2844.665221,574.194245 2843.492143,568.050744 2842.727551,561.769296 2841.687901,555.635224 2840.939179,545.654363 2839.030369,529.751350 2838.384719,522.305506 2837.216839,516.582810 2835.849653,506.343769 2834.509393,498.286270 2827.773400,453.524697 2827.083904,436.709519 2828.164034,435.322826 2829.235826,433.260630 2832.575323,430.483765 2833.445470,428.700945 2833.756898,425.684564 2834.477672,405.983424 2834.445689,403.392151 2834.610156,400.100696 2834.776400,396.953202 2835.431370,394.353450 2836.467621,389.412061 2837.650968,384.756819 2839.239240,379.675710 2841.774366,362.410935 2844.306204,344.880387 2845.734115,337.608306 2845.951895,332.820999 2847.670043,316.662780 2848.416193,309.819983 2848.766027,307.423356 2849.382438,305.023438 2849.978343,302.623773 2850.762219,299.668012 2856.467250,282.508082 2859.632954,265.656383 2860.729061,260.581346 2862.670146,250.024576 2866.719224,233.294875 2884.529246,171.672369 2889.066186,160.407935 2891.982762,151.622270 2893.174407,147.642523 2896.365893,139.529068 2901.343416,129.898363 2903.415959,120.026641 2904.242980,108.940917 2902.614245,99.114901 2904.089366,84.875728 2906.361232,79.520352 2910.313889,77.411495 2923.227510,76.022633 2930.480197,72.931596 2940.679636,63.502191 2944.747237,59.077122 2953.225100,43.931854 2957.159406,39.508427 2961.243820,36.445433 2965.498858,35.573283 2969.654270,38.257602 2973.008885,42.524536 2975.164228,50.151092 2976.221838,57.735830"/>
    <poly id="186116741" type="water" color="181,209,209" fill="1" layer="-4.00" shape="2997.197687,549.595007 5086.909736,-459.559374 7325.492518,3988.532276 7155.160009,4069.108243 7081.212810,3926.554645 5940.933681,2099.933859 5139.954737,2321.600481 3756.991140,1647.878273 2997.197687,549.595007"/>
    <poly id="196603679" type="tourism" color="207,245,201" fill="1" layer="-2.00" shape="1972.497855,1174.811658 1953.298179,1175.468304 1953.867745,1191.786509 1973.067442,1191.129863 1972.497855,1174.811658"/>
    <poly id="206234391" type="residential" color="235,235,227" fill="1" layer="-3.00" shape="4062.819862,2271.458663 4062.769690,2271.547891 4062.507999,2273.600116 4063.750402,2275.367857 4145.115223,2324.441240 4156.849441,2330.331685 4158.211291,2329.329047 4196.675532,2256.195602 4195.812536,2252.772899 4196.665871,2249.638990 4198.323510,2247.680174 4200.820557,2246.419766 4205.606241,2246.936241 4207.752521,2243.033130 4202.859077,2240.446865 4201.862626,2238.665003 4208.302222,2226.191448 4208.246557,2224.187463 4206.947017,2222.774860 4187.219599,2212.442777 4184.404810,2213.718206 4179.045521,2221.515521 4177.107376,2222.359188 4175.003036,2222.208118 4135.224500,2199.421361 4116.590254,2188.743348 4112.427494,2188.008676 4110.222601,2188.844571 4108.246936,2190.796251 4062.819862,2271.458663"/>
    <poly id="206237926" type="tourism" color="207,245,201" fill="1" layer="-2.00" shape="2639.273654,802.944667 2683.201681,791.825995 2673.677092,754.574735 2629.749171,765.693387 2639.273654,802.944667"/>
    <poly id="206930962" type="unknown" color="51,128,255" fill="0" layer="-1.00" shape="4078.078439,2509.205301 4086.792126,2512.187208"/>
    <poly id="206930963" type="unknown" color="51,128,255" fill="0" layer="-1.00" shape="4080.285166,2504.382195 4088.385422,2508.346364"/>
    <poly id="206935581" type="landuse" color="194,194,130" fill="1" layer="-3.00" shape="3829.681347,2354.139198 3841.883606,2334.096244 3850.749300,2339.424405 3838.547184,2359.478441 3829.681347,2354.139198"/>
    <poly id="207138522" type="building" color="255,230,230" fill="1" layer="-1.00" shape="3775.519679,2388.081500 3754.408641,2393.537565 3756.417560,2402.539227 3758.806246,2413.219663 3776.348667,2408.627414 3779.079937,2406.400607 3779.859665,2403.112585 3776.377739,2390.285972 3775.519679,2388.081500"/>
    <poly id="207138526" type="amenity" color="237,199,199" fill="1" layer="-1.00" shape="3794.222553,2433.259369 3797.886054,2440.047563 3811.455421,2447.543628 3815.205853,2439.832866 3814.310953,2433.829945 3808.402063,2422.960566 3800.704397,2423.332874 3794.222553,2433.259369"/>
    <poly id="207138526#1" type="building" color="255,230,230" fill="1" layer="-1.00" shape="3794.222553,2433.259369 3797.886054,2440.047563 3811.455421,2447.543628 3815.205853,2439.832866 3814.310953,2433.829945 3808.402063,2422.960566 3800.704397,2423.332874 3794.222553,2433.259369"/>
    <poly id="207143222" type="building" color="255,230,230" fill="1" layer="-1.00" shape="4112.512273,2581.400200 4114.817056,2582.822482 4117.545714,2584.516389 4098.730053,2612.959416 4090.213671,2606.873908 4091.785700,2603.797541 4098.048609,2596.897253 4104.038212,2590.288319 4112.512273,2581.400200"/>
    <poly id="207143223" type="building" color="255,230,230" fill="1" layer="-1.00" shape="4082.059702,2618.416170 4063.090145,2641.079616 4053.568330,2627.530574 4058.741117,2620.389097 4054.539951,2617.395465 4065.708735,2604.985132 4082.059702,2618.416170"/>
    <poly id="207143224" type="building" color="255,230,230" fill="1" layer="-1.00" shape="4131.297371,2595.930671 4147.400281,2604.247817 4131.837196,2639.406583 4117.053119,2630.751854 4131.297371,2595.930671"/>
    <poly id="207143225" type="building" color="255,230,230" fill="1" layer="-1.00" shape="4052.665812,2539.114608 4029.635296,2562.636936 4020.196042,2554.081924 4042.281185,2532.066542 4052.665812,2539.114608"/>
    <poly id="207143227" type="building" color="255,230,230" fill="1" layer="-1.00" shape="4071.261622,2568.976054 4068.131615,2566.345699 4055.202730,2582.377435 4039.814623,2570.496075 4064.343403,2547.043738 4080.530622,2558.029109 4071.261622,2568.976054"/>
    <poly id="207143228" type="building" color="255,230,230" fill="1" layer="-1.00" shape="4122.400349,2588.099970 4108.174719,2619.465341 4098.730053,2612.959416 4117.545714,2584.516389 4122.400349,2588.099970"/>
    <poly id="207143230" type="building" color="255,230,230" fill="1" layer="-1.00" shape="4064.343403,2547.043738 4039.814623,2570.496075 4029.635296,2562.636936 4052.665812,2539.114608 4064.343403,2547.043738"/>
    <poly id="207143231" type="building" color="255,230,230" fill="1" layer="-1.00" shape="4080.183157,2577.958334 4061.017800,2599.716019 4048.195264,2590.438802 4055.202730,2582.377435 4067.473866,2567.062698 4080.183157,2577.958334"/>
    <poly id="207143232" type="building" color="255,230,230" fill="1" layer="-1.00" shape="4112.512273,2581.400200 4104.038212,2590.288319 4097.240460,2585.499470 4092.175418,2592.229830 4098.048609,2596.897253 4091.785700,2603.797541 4075.913019,2588.411281 4080.033106,2583.221083 4087.336543,2589.089066 4093.398974,2581.737171 4085.708338,2576.073357 4093.251927,2566.587644 4112.512273,2581.400200"/>
    <poly id="207143235" type="building" color="255,230,230" fill="1" layer="-1.00" shape="4117.053119,2630.751854 4105.988352,2624.277122 4108.174719,2619.465341 4122.400349,2588.099970 4131.297371,2595.930671 4117.053119,2630.751854"/>