<?xml version="1.0" encoding="UTF-8"?>
<!-- generated on 2021-01-25 11:51:45.064316 by $Id$ v1_8_0+0044-4820708f3d
  options: -n map.net.xml -e 100 -l
-->
<routes xmlns:xsi="http://www.w3.org/2001/XMLSchema-instance" xsi:noNamespaceSchemaLocation="http://sumo.dlr.de/xsd/routes_file.xsd">
    <trip id="0" depart="0.00" from="331159750#2" to="-105185863"/>
    <trip id="1" depart="1.00" from="15240255#2" to="134216629#7"/>
    <trip id="2" depart="2.00" from="42161336#1" to="413500589#2"/>
    <trip id="3" depart="3.00" from="75035871" to="-413500603#1"/>
    <trip id="4" depart="4.00" from="19112525#0" to="-135697865"/>
    <trip id="5" depart="5.00" from="134216629#4" to="282737868"/>
    <trip id="6" depart="6.00" from="-135697865" to="105184919"/>
    <trip id="7" depart="7.00" from="341671964#7" to="30149874#1"/>
    <trip id="8" depart="8.00" from="134216629#7" to="30969386#11"/>
    <trip id="9" depart="9.00" from="622500513#8" to="-105184916"/>
    <trip id="10" depart="10.00" from="622500513#8" to="413500610#0"/>
    <trip id="11" depart="11.00" from="15469929#5" to="-72145323#1"/>
    <trip id="12" depart="12.00" from="795084570#2" to="15469929#0"/>
    <trip id="13" depart="13.00" from="-413500613" to="-42161330#0"/>
    <trip id="14" depart="14.00" from="72157020#1" to="30969386#8"/>
    <trip id="15" depart="15.00" from="622500513#8" to="42161336#2"/>
    <trip id="16" depart="16.00" from="30123452#0" to="795084572#5"/>
    <trip id="17" depart="17.00" from="164103413#1" to="30789633"/>
    <trip id="18" depart="18.00" from="72145319#2" to="30989373#7"/>
    <trip id="19" depart="19.00" from="72157029#0" to="30969384#3"/>
    <trip id="20" depart="20.00" from="413500607#0" to="-179731687"/>
    <trip id="21" depart="21.00" from="135697865" to="15289979#1"/>
    <trip id="22" depart="22.00" from="-413500595#1" to="14479140"/>
    <trip id="23" depart="23.00" from="-42161336#0" to="15240253#1"/>
    <trip id="24" depart="24.00" from="329119142#2" to="160970024"/>
    <trip id="25" depart="25.00" from="160970036" to="105184919"/>
    <trip id="26" depart="26.00" from="15240247" to="794061352#0"/>
    <trip id="27" depart="27.00" from="341671964#5" to="30969387#4"/>
    <trip id="28" depart="28.00" from="-72157031" to="42161336#1"/>
    <trip id="29" depart="29.00" from="-72157022" to="160970035"/>
    <trip id="30" depart="30.00" from="795100845#3" to="341671964#3"/>
    <trip id="31" depart="31.00" from="30969241#0" to="413500593#0"/>
    <trip id="32" depart="32.00" from="72157016" to="586980043"/>
    <trip id="33" depart="33.00" from="135697865" to="-135697865"/>
    <trip id="34" depart="34.00" from="15469696#4" to="15017128#4"/>
    <trip id="35" depart="35.00" from="105185863" to="794061353#2"/>
    <trip id="36" depart="36.00" from="72157029#5" to="15469696#0"/>
    <trip id="37" depart="37.00" from="341671980" to="167986520"/>
    <trip id="38" depart="38.00" from="75551404#4" to="220554533"/>
    <trip id="39" depart="39.00" from="15240246#4" to="14520437"/>
    <trip id="40" depart="40.00" from="30969253#0" to="14819635"/>
    <trip id="41" depart="41.00" from="30969384#3" to="75035872#1"/>
    <trip id="42" depart="42.00" from="179723261#5" to="134216629#1"/>
    <trip id="43" depart="43.00" from="875941231" to="282737870"/>
    <trip id="44" depart="44.00" from="-413500610#2" to="-201336950"/>
    <trip id="45" depart="45.00" from="-42161336#2" to="329119142#1"/>
    <trip id="46" depart="46.00" from="59877209#4" to="179731689#0"/>
    <trip id="47" depart="47.00" from="-285717829" to="164102096"/>
    <trip id="48" depart="48.00" from="837858642" to="30086727#0"/>
    <trip id="49" depart="49.00" from="795084574#0" to="72157027"/>
    <trip id="50" depart="50.00" from="-105184919" to="42161336#0"/>
    <trip id="51" depart="51.00" from="392002073#2" to="30123478#6"/>
    <trip id="52" depart="52.00" from="15240247" to="341671964#7"/>
    <trip id="53" depart="53.00" from="-42161336#3" to="201336950"/>
    <trip id="54" depart="54.00" from="207143229#4" to="794061359#1"/>
    <trip id="55" depart="55.00" from="72157029#5" to="15017128#2"/>
    <trip id="56" depart="56.00" from="257820900" to="-75035872#1"/>
    <trip id="57" depart="57.00" from="75551404#4" to="72157029#1"/>
    <trip id="58" depart="58.00" from="15469624#1" to="341671964#3"/>
    <trip id="59" depart="59.00" from="30969386#7" to="-622500513#8"/>
    <trip id="60" depart="60.00" from="426499143#1" to="30149869#0"/>
    <trip id="61" depart="61.00" from="586980043" to="30086727#1"/>
    <trip id="62" depart="62.00" from="-105184912" to="15469696#4"/>
    <trip id="63" depart="63.00" from="-105184919" to="787840539#0"/>
    <trip id="64" depart="64.00" from="72157031" to="72145319#4"/>
    <trip id="65" depart="65.00" from="15469696#1" to="-256047500#0"/>
    <trip id="66" depart="66.00" from="72157031" to="794061354#6"/>
    <trip id="67" depart="67.00" from="-413500603#1" to="234509633#0"/>
    <trip id="68" depart="68.00" from="-413500589#2" to="428661182"/>
    <trip id="69" depart="69.00" from="488125128#2" to="-468400261"/>
    <trip id="70" depart="70.00" from="228112616#2" to="30149896"/>
    <trip id="71" depart="71.00" from="15240247" to="72157029#2"/>
    <trip id="72" depart="72.00" from="19112525#0" to="105184919"/>
    <trip id="73" depart="73.00" from="30123452#1" to="42161336#2"/>
    <trip id="74" depart="74.00" from="105184919" to="15469624#5"/>
    <trip id="75" depart="75.00" from="799484671#0" to="341671988#1"/>
    <trip id="76" depart="76.00" from="201336949" to="29625606#1"/>
    <trip id="77" depart="77.00" from="-42432241#0" to="135697865"/>
    <trip id="78" depart="78.00" from="15469929#3" to="30969386#11"/>
    <trip id="79" depart="79.00" from="14479140" to="134216629#10"/>
    <trip id="80" depart="80.00" from="-413500589#3" to="331159750#2"/>
    <trip id="81" depart="81.00" from="135697865" to="75035877"/>
    <trip id="82" depart="82.00" from="72157028" to="-413500589#2"/>
    <trip id="83" depart="83.00" from="14479291" to="392002073#0"/>
    <trip id="84" depart="84.00" from="105185863" to="-555336549"/>
    <trip id="85" depart="85.00" from="794061352#0" to="30969384#10"/>
    <trip id="86" depart="86.00" from="228112614" to="59877203"/>
    <trip id="87" depart="87.00" from="622500513#8" to="-875941231"/>
    <trip id="88" depart="88.00" from="-42161336#0" to="201336949"/>
    <trip id="89" depart="89.00" from="19112525#0" to="228112613"/>
    <trip id="90" depart="90.00" from="42161336#0" to="392002073#3"/>
    <trip id="91" depart="91.00" from="795100845#0" to="-42161336#0"/>
    <trip id="92" depart="92.00" from="179723261#6" to="15469929#2"/>
    <trip id="93" depart="93.00" from="72157029#0" to="14520437"/>
    <trip id="94" depart="94.00" from="105184912" to="207143229#4"/>
    <trip id="95" depart="95.00" from="19112525#0" to="15240253#3"/>
    <trip id="96" depart="96.00" from="14818781#1" to="75551410#0"/>
    <trip id="97" depart="97.00" from="206232952" to="72157027"/>
    <trip id="98" depart="98.00" from="30149874#3" to="-201336950"/>
    <trip id="99" depart="99.00" from="875941231" to="72145324#2"/>
</routes>
